/*---------------------------------------------------------------------------*\
| =========                 |                                                 |
| \\      /  F ield         | OpenFOAM: The Open Source CFD Toolbox           |
|  \\    /   O peration     | Version:  2.3.1                                 |
|   \\  /    A nd           | Web:      www.OpenFOAM.org                      |
|    \\/     M anipulation  |                                                 |
\*---------------------------------------------------------------------------*/
Build  : 2.3.1-bcfaaa7b8660
Exec   : snappyHexMesh -parallel -overwrite
Date   : May 16 2017
Time   : 20:17:30
Host   : "ubuntu"
PID    : 3096
Case   : /home/cong/Desktop/AIVC/Case5
nProcs : 4
Slaves : 
3
(
"ubuntu.3097"
"ubuntu.3098"
"ubuntu.3099"
)

Pstream initialized with:
    floatTransfer      : 0
    nProcsSimpleSum    : 0
    commsType          : nonBlocking
    polling iterations : 0
sigFpe : Enabling floating point exception trapping (FOAM_SIGFPE).
fileModificationChecking : Monitoring run-time modified files using timeStampMaster
allowSystemOperations : Allowing user-supplied system call operations

// * * * * * * * * * * * * * * * * * * * * * * * * * * * * * * * * * * * * * //
Create time

Create mesh for time = 0

Read mesh in = 0.53 s

Overall mesh bounding box  : (-0.600000143 -1.43600005e-07 -2.81367617e-05) (0.600000024 2.44000006 2.46000004)
Relative tolerance         : 1e-12
Absolute matching distance : 3.66678879e-12

Reading refinement surfaces.
Read refinement surfaces in = 1.34 s

Reading refinement shells.
Refinement level according to distance to manikin.stl
    level 4 for all cells within 0.012 metre.
    level 3 for all cells within 0.03 metre.
    level 2 for all cells within 0.06 metre.
    level 1 for all cells within 0.12 metre.
Read refinement shells in = 0 s

Setting refinement level of surface to be consistent with shells.
Checked shell refinement in = 1.02 s

Reading features.
Read edgeMesh room.eMesh
    points      : 310
    edges       : 336
    boundingBox : (-0.600000143 -1.43600005e-07 -5.12999989e-08) (0.600000024 2.44000006 2.46000004)

Refinement level according to distance to "room.eMesh" (310 points, 336 edges).
    level 1 for all cells within 0 metre.
Read edgeMesh manikin.eMesh
    points      : 2046
    edges       : 1871
    boundingBox : (-0.262629002 0.729269028 0.00444974983) (0.271382987 1.43563998 1.35169005)

Refinement level according to distance to "manikin.eMesh" (2046 points, 1871 edges).
    level 5 for all cells within 0 metre.
Read features in = 0.07 s


Determining initial surface intersections
-----------------------------------------

Edge intersection testing:
    Number of edges             : 3723355
    Number of edges to retest   : 3723355
    Number of intersected edges : 200743
Calculated surface intersections in = 2.45 s

Initial mesh : cells:1153856  faces:3723355  points:1451576
Cells per refinement level:
    0	45560
    1	74881
    2	94720
    3	149303
    4	678331
    5	111061

Adding patches for surface regions
----------------------------------

Patch Type                Region                        
----- ----                ------                        
room:

1     wall                room_SIDE2                    
2     wall                room_FLOOR                    
3     wall                room_CEILING                  
4     wall                room_BACK                     
5     wall                room_SIDE1                    
6     patch               room_INLET                    
7     patch               room_OUTLET2                  
8     patch               room_OUTLET1                  

manikin:

9     wall                manikin                       

Added patches in = 0.01 s

Selecting decompositionMethod ptscotch
Layer thickness specified as first layer and expansion ratio.

Shrinking and layer addition phase
----------------------------------

Using mesh parameters 
{
    maxNonOrtho     70;
    maxBoundarySkewness 20;
    maxInternalSkewness 4;
    maxConcave      80;
    minVol          1e-30;
    minTetQuality   -1e+30;
    minVolCollapseRatio -1;
    minArea         -1;
    minTwist        0.001;
    minDeterminant  0.0001;
    minFaceWeight   0.005;
    minVolRatio     0.001;
    minTriangleTwist -1;
    nSmoothScale    4;
    errorReduction  0.75;
    relaxed
    {
        maxNonOrtho     75;
        maxBoundarySkewness 20;
        maxInternalSkewness 5;
        maxConcave      80;
        minVol          1e-60;
        minTetQuality   -1e+30;
        minArea         -1;
        minTwist        -2;
        minDeterminant  0;
        minFaceWeight   0;
        minVolRatio     0;
    }
}



Merging all faces of a cell
---------------------------
    - which are on the same patch
    - which make an angle < 180 degrees
      (cos:-1)
    - as long as the resulting face doesn't become concave by more than 90 degrees
      (0=straight, 180=fully concave)

Merging 1432 sets of faces.

Edge intersection testing:
    Number of edges             : 3721011
    Number of edges to retest   : 11049
    Number of intersected edges : 199792

Undo iteration 0
----------------
Checking faces in error :
    non-orthogonality > 70  degrees                        : 8
    faces with face pyramid volume < 1e-30                 : 1
    faces with concavity > 80  degrees                     : 19
    faces with skewness > 4   (internal) or 20  (boundary) : 0
    faces with interpolation weights (0..1)  < 0.005       : 0
    faces with volume ratio of neighbour cells < 0.001     : 0
    faces with face twist < 0.001                          : 96
    faces on cells with determinant < 0.0001                : 0
Masters that need to be restored:124
Edge intersection testing:
    Number of edges             : 3721162
    Number of edges to retest   : 767
    Number of intersected edges : 199960


Undo iteration 1
----------------
Checking faces in error :
    non-orthogonality > 70  degrees                        : 0
    faces with face pyramid volume < 1e-30                 : 0
    faces with concavity > 80  degrees                     : 0
    faces with skewness > 4   (internal) or 20  (boundary) : 0
    faces with interpolation weights (0..1)  < 0.005       : 0
    faces with volume ratio of neighbour cells < 0.001     : 0
    faces with face twist < 0.001                          : 0
    faces on cells with determinant < 0.0001                : 0

Merging all points on surface that
- are used by only two boundary faces and
- make an angle with a cosine of more than -1.

Removing 1967 straight edge points ...

Edge intersection testing:
    Number of edges             : 3721162
    Number of edges to retest   : 16738
    Number of intersected edges : 200529

Undo iteration 0
----------------
Checking faces in error :
    non-orthogonality > 70  degrees                        : 0
    faces with face pyramid volume < 1e-30                 : 0
    faces with concavity > 80  degrees                     : 0
    faces with skewness > 4   (internal) or 20  (boundary) : 0
    faces with interpolation weights (0..1)  < 0.005       : 0
    faces with volume ratio of neighbour cells < 0.001     : 0
    faces with face twist < 0.001                          : 7
    faces on cells with determinant < 0.0001                : 0
Detected 5 error faces on boundaries that have been merged. These will be restored to their original faces.

Edge intersection testing:
    Number of edges             : 3721162
    Number of edges to retest   : 21
    Number of intersected edges : 200529

Undo iteration 1
----------------
Checking faces in error :
    non-orthogonality > 70  degrees                        : 0
    faces with face pyramid volume < 1e-30                 : 0
    faces with concavity > 80  degrees                     : 0
    faces with skewness > 4   (internal) or 20  (boundary) : 0
    faces with interpolation weights (0..1)  < 0.005       : 0
    faces with volume ratio of neighbour cells < 0.001     : 0
    faces with face twist < 0.001                          : 2
    faces on cells with determinant < 0.0001                : 0
Detected 0 error faces on boundaries that have been merged. These will be restored to their original faces.

Detected 2 error faces in mesh. Restoring neighbours of faces in error.

Edge intersection testing:
    Number of edges             : 3721162
    Number of edges to retest   : 97
    Number of intersected edges : 200536

Checking mesh manifoldness ...
Outside of mesh is multiply connected across edges or points.
This is not a fatal error but might cause some unexpected behaviour.


Checking initial mesh ...
Checking faces in error :
    non-orthogonality > 70  degrees                        : 0
    faces with face pyramid volume < 1e-30                 : 0
    faces with concavity > 80  degrees                     : 0
    faces with skewness > 4   (internal) or 20  (boundary) : 0
    faces with interpolation weights (0..1)  < 0.005       : 0
    faces with volume ratio of neighbour cells < 0.001     : 0
    faces with face twist < 0.001                          : 0
    faces on cells with determinant < 0.0001                : 0
Detected 0 illegal faces (concave, zero area or negative cell pyramid volume)

Adding in total 0 inter-processor patches to handle extrusion of non-manifold processor boundaries.

Handling points with inconsistent layer specification ...

Handling non-manifold points ...

Checking patch manifoldness ...
Outside of local patch is multiply connected across edges or points at 0 points.
Set displacement to zero for all 0 non-manifold points

Handling feature edges ...

Growing non-extrusion points by one layer ...
Set displacement to zero for an additional 0 points.

patch   faces    layers avg thickness[m]
                        near-wall overall
-----   -----    ------ --------- -------
manikin 175325   5      0.0004    0.0027  

Selecting externalDisplacementMeshMover displacementMedialAxis
displacementMedialAxis : Calculating distance to Medial Axis ...
displacementMedialAxis : Smoothing normals ...
    Iteration 0   residual 0.0121296684
    Iteration 10   residual 0.00426782633
    Iteration 20   residual 0.00329686598
    Iteration 30   residual 0.00281801832
    Iteration 40   residual 0.00251374052
    Iteration 50   residual 0.00229618394
    Iteration 60   residual 0.00213005249
    Iteration 70   residual 0.00199763228
    Iteration 80   residual 0.00188889884
    Iteration 90   residual 0.00179762891
displacementMedialAxis : Inserting all points on patch room_SIDE2
displacementMedialAxis : Inserting all points on patch room_FLOOR
displacementMedialAxis : Inserting all points on patch room_CEILING
displacementMedialAxis : Inserting all points on patch room_BACK
displacementMedialAxis : Inserting all points on patch room_SIDE1
displacementMedialAxis : Inserting points on patch room_INLET if angle to nearest layer patch > 75 degrees.
displacementMedialAxis : Inserting all points on patch room_OUTLET2
displacementMedialAxis : Inserting all points on patch room_OUTLET1
displacementMedialAxis : Smoothing normals in interior ...
    Iteration 0   residual 0.028596921
    Iteration 10   residual 0.00502139414
    Iteration 20   residual 0.00387110304
    Iteration 30   residual 0.00345224198
    Iteration 40   residual 0.00323850997
    Iteration 50   residual 0.00310675462
    Iteration 60   residual 0.00301687339
    Iteration 70   residual 0.0029519418
    Iteration 80   residual 0.00290333059
    Iteration 90   residual 0.00286604546

Layer addition iteration 0
--------------------------

Determining displacement for added points according to pointNormal ...
Detected 4 points with point normal pointing through faces.
Reset displacement at 4 points to average of surrounding points.

displacementMedialAxis : Smoothing using Medial Axis ...
displacementMedialAxis : Reducing layer thickness at 11 nodes where thickness to medial axis distance is large 
displacementMedialAxis : Removing isolated regions ...
displacementMedialAxis : Number of isolated points extrusion stopped : 13
displacementMedialAxis : Smoothing field ...
    Iteration 0   residual 2.18864178e-07
displacementMedialAxis : Moving mesh ...
displacementMedialAxis : Iteration 0
Moving mesh using displacement scaling : min:1  max:1
Checking faces in error :
    non-orthogonality > 70  degrees                        : 217
    faces with face pyramid volume < 1e-30                 : 42
    faces with concavity > 80  degrees                     : 3
    faces with skewness > 4   (internal) or 20  (boundary) : 0
    faces with interpolation weights (0..1)  < 0.005       : 0
    faces with volume ratio of neighbour cells < 0.001     : 0
    faces with face twist < 0.001                          : 83
    faces on cells with determinant < 0.0001                : 12
displacementMedialAxis : Iteration 1
Moving mesh using displacement scaling : min:0.75  max:1
Checking faces in error :
    non-orthogonality > 70  degrees                        : 75
    faces with face pyramid volume < 1e-30                 : 26
    faces with concavity > 80  degrees                     : 4
    faces with skewness > 4   (internal) or 20  (boundary) : 0
    faces with interpolation weights (0..1)  < 0.005       : 0
    faces with volume ratio of neighbour cells < 0.001     : 0
    faces with face twist < 0.001                          : 56
    faces on cells with determinant < 0.0001                : 5
displacementMedialAxis : Iteration 2
Moving mesh using displacement scaling : min:0.5625  max:1
Checking faces in error :
    non-orthogonality > 70  degrees                        : 44
    faces with face pyramid volume < 1e-30                 : 12
    faces with concavity > 80  degrees                     : 5
    faces with skewness > 4   (internal) or 20  (boundary) : 0
    faces with interpolation weights (0..1)  < 0.005       : 2
    faces with volume ratio of neighbour cells < 0.001     : 1
    faces with face twist < 0.001                          : 42
    faces on cells with determinant < 0.0001                : 4
displacementMedialAxis : Iteration 3
Moving mesh using displacement scaling : min:0.421875  max:1
Checking faces in error :
    non-orthogonality > 70  degrees                        : 35
    faces with face pyramid volume < 1e-30                 : 8
    faces with concavity > 80  degrees                     : 2
    faces with skewness > 4   (internal) or 20  (boundary) : 0
    faces with interpolation weights (0..1)  < 0.005       : 0
    faces with volume ratio of neighbour cells < 0.001     : 0
    faces with face twist < 0.001                          : 42
    faces on cells with determinant < 0.0001                : 8
displacementMedialAxis : Iteration 4
Moving mesh using displacement scaling : min:0.31640625  max:1
Checking faces in error :
    non-orthogonality > 70  degrees                        : 34
    faces with face pyramid volume < 1e-30                 : 4
    faces with concavity > 80  degrees                     : 3
    faces with skewness > 4   (internal) or 20  (boundary) : 0
    faces with interpolation weights (0..1)  < 0.005       : 1
    faces with volume ratio of neighbour cells < 0.001     : 0
    faces with face twist < 0.001                          : 29
    faces on cells with determinant < 0.0001                : 3
displacementMedialAxis : Iteration 5
Moving mesh using displacement scaling : min:0.237304688  max:1
Checking faces in error :
    non-orthogonality > 70  degrees                        : 27
    faces with face pyramid volume < 1e-30                 : 6
    faces with concavity > 80  degrees                     : 0
    faces with skewness > 4   (internal) or 20  (boundary) : 0
    faces with interpolation weights (0..1)  < 0.005       : 0
    faces with volume ratio of neighbour cells < 0.001     : 0
    faces with face twist < 0.001                          : 27
    faces on cells with determinant < 0.0001                : 3
displacementMedialAxis : Iteration 6
Moving mesh using displacement scaling : min:0.177978516  max:1
Checking faces in error :
    non-orthogonality > 70  degrees                        : 28
    faces with face pyramid volume < 1e-30                 : 6
    faces with concavity > 80  degrees                     : 1
    faces with skewness > 4   (internal) or 20  (boundary) : 0
    faces with interpolation weights (0..1)  < 0.005       : 0
    faces with volume ratio of neighbour cells < 0.001     : 0
    faces with face twist < 0.001                          : 21
    faces on cells with determinant < 0.0001                : 0
displacementMedialAxis : Iteration 7
Moving mesh using displacement scaling : min:0.133483887  max:1
Checking faces in error :
    non-orthogonality > 70  degrees                        : 24
    faces with face pyramid volume < 1e-30                 : 9
    faces with concavity > 80  degrees                     : 0
    faces with skewness > 4   (internal) or 20  (boundary) : 0
    faces with interpolation weights (0..1)  < 0.005       : 0
    faces with volume ratio of neighbour cells < 0.001     : 0
    faces with face twist < 0.001                          : 25
    faces on cells with determinant < 0.0001                : 0
displacementMedialAxis : Iteration 8
Moving mesh using displacement scaling : min:0.100112915  max:1
Checking faces in error :
    non-orthogonality > 70  degrees                        : 24
    faces with face pyramid volume < 1e-30                 : 7
    faces with concavity > 80  degrees                     : 1
    faces with skewness > 4   (internal) or 20  (boundary) : 0
    faces with interpolation weights (0..1)  < 0.005       : 0
    faces with volume ratio of neighbour cells < 0.001     : 0
    faces with face twist < 0.001                          : 18
    faces on cells with determinant < 0.0001                : 0
displacementMedialAxis : Iteration 9
Moving mesh using displacement scaling : min:0.0750846863  max:1
Checking faces in error :
    non-orthogonality > 70  degrees                        : 23
    faces with face pyramid volume < 1e-30                 : 8
    faces with concavity > 80  degrees                     : 0
    faces with skewness > 4   (internal) or 20  (boundary) : 1
    faces with interpolation weights (0..1)  < 0.005       : 0
    faces with volume ratio of neighbour cells < 0.001     : 0
    faces with face twist < 0.001                          : 18
    faces on cells with determinant < 0.0001                : 0
displacementMedialAxis : Iteration 10
Moving mesh using displacement scaling : min:0.0563135147  max:1
Checking faces in error :
    non-orthogonality > 70  degrees                        : 23
    faces with face pyramid volume < 1e-30                 : 6
    faces with concavity > 80  degrees                     : 1
    faces with skewness > 4   (internal) or 20  (boundary) : 0
    faces with interpolation weights (0..1)  < 0.005       : 0
    faces with volume ratio of neighbour cells < 0.001     : 0
    faces with face twist < 0.001                          : 16
    faces on cells with determinant < 0.0001                : 0
displacementMedialAxis : Iteration 11
Moving mesh using displacement scaling : min:0.042235136  max:1
Checking faces in error :
    non-orthogonality > 70  degrees                        : 23
    faces with face pyramid volume < 1e-30                 : 6
    faces with concavity > 80  degrees                     : 0
    faces with skewness > 4   (internal) or 20  (boundary) : 0
    faces with interpolation weights (0..1)  < 0.005       : 0
    faces with volume ratio of neighbour cells < 0.001     : 0
    faces with face twist < 0.001                          : 17
    faces on cells with determinant < 0.0001                : 0
displacementMedialAxis : Iteration 12
Moving mesh using displacement scaling : min:0.031676352  max:1
Checking faces in error :
    non-orthogonality > 70  degrees                        : 23
    faces with face pyramid volume < 1e-30                 : 6
    faces with concavity > 80  degrees                     : 0
    faces with skewness > 4   (internal) or 20  (boundary) : 0
    faces with interpolation weights (0..1)  < 0.005       : 0
    faces with volume ratio of neighbour cells < 0.001     : 0
    faces with face twist < 0.001                          : 14
    faces on cells with determinant < 0.0001                : 0
displacementMedialAxis : Iteration 13
Moving mesh using displacement scaling : min:0.023757264  max:1
Checking faces in error :
    non-orthogonality > 70  degrees                        : 23
    faces with face pyramid volume < 1e-30                 : 6
    faces with concavity > 80  degrees                     : 0
    faces with skewness > 4   (internal) or 20  (boundary) : 0
    faces with interpolation weights (0..1)  < 0.005       : 0
    faces with volume ratio of neighbour cells < 0.001     : 0
    faces with face twist < 0.001                          : 14
    faces on cells with determinant < 0.0001                : 0
displacementMedialAxis : Iteration 14
Moving mesh using displacement scaling : min:0.017817948  max:1
Checking faces in error :
    non-orthogonality > 70  degrees                        : 23
    faces with face pyramid volume < 1e-30                 : 6
    faces with concavity > 80  degrees                     : 0
    faces with skewness > 4   (internal) or 20  (boundary) : 0
    faces with interpolation weights (0..1)  < 0.005       : 0
    faces with volume ratio of neighbour cells < 0.001     : 0
    faces with face twist < 0.001                          : 14
    faces on cells with determinant < 0.0001                : 0
displacementMedialAxis : Iteration 15
Moving mesh using displacement scaling : min:0.013363461  max:1
Checking faces in error :
    non-orthogonality > 70  degrees                        : 23
    faces with face pyramid volume < 1e-30                 : 6
    faces with concavity > 80  degrees                     : 0
    faces with skewness > 4   (internal) or 20  (boundary) : 0
    faces with interpolation weights (0..1)  < 0.005       : 0
    faces with volume ratio of neighbour cells < 0.001     : 0
    faces with face twist < 0.001                          : 13
    faces on cells with determinant < 0.0001                : 0
displacementMedialAxis : Iteration 16
Moving mesh using displacement scaling : min:0.0100225958  max:1
Checking faces in error :
    non-orthogonality > 70  degrees                        : 23
    faces with face pyramid volume < 1e-30                 : 6
    faces with concavity > 80  degrees                     : 0
    faces with skewness > 4   (internal) or 20  (boundary) : 0
    faces with interpolation weights (0..1)  < 0.005       : 0
    faces with volume ratio of neighbour cells < 0.001     : 0
    faces with face twist < 0.001                          : 12
    faces on cells with determinant < 0.0001                : 0
displacementMedialAxis : Iteration 17
Moving mesh using displacement scaling : min:0.00751694682  max:1
Checking faces in error :
    non-orthogonality > 70  degrees                        : 23
    faces with face pyramid volume < 1e-30                 : 6
    faces with concavity > 80  degrees                     : 0
    faces with skewness > 4   (internal) or 20  (boundary) : 0
    faces with interpolation weights (0..1)  < 0.005       : 0
    faces with volume ratio of neighbour cells < 0.001     : 0
    faces with face twist < 0.001                          : 13
    faces on cells with determinant < 0.0001                : 0
displacementMedialAxis : Iteration 18
Moving mesh using displacement scaling : min:0.00563771011  max:1
Checking faces in error :
    non-orthogonality > 70  degrees                        : 23
    faces with face pyramid volume < 1e-30                 : 5
    faces with concavity > 80  degrees                     : 0
    faces with skewness > 4   (internal) or 20  (boundary) : 0
    faces with interpolation weights (0..1)  < 0.005       : 0
    faces with volume ratio of neighbour cells < 0.001     : 0
    faces with face twist < 0.001                          : 12
    faces on cells with determinant < 0.0001                : 0
displacementMedialAxis : Iteration 19
Moving mesh using displacement scaling : min:0.00422828259  max:1
Checking faces in error :
    non-orthogonality > 70  degrees                        : 22
    faces with face pyramid volume < 1e-30                 : 5
    faces with concavity > 80  degrees                     : 0
    faces with skewness > 4   (internal) or 20  (boundary) : 0
    faces with interpolation weights (0..1)  < 0.005       : 0
    faces with volume ratio of neighbour cells < 0.001     : 0
    faces with face twist < 0.001                          : 14
    faces on cells with determinant < 0.0001                : 0
displacementMedialAxis : Iteration 20
displacementMedialAxis : Displacement scaling for error reduction set to 0.
Moving mesh using displacement scaling : min:0.00317121194  max:1
Checking faces in error :
    non-orthogonality > 70  degrees                        : 21
    faces with face pyramid volume < 1e-30                 : 5
    faces with concavity > 80  degrees                     : 0
    faces with skewness > 4   (internal) or 20  (boundary) : 0
    faces with interpolation weights (0..1)  < 0.005       : 0
    faces with volume ratio of neighbour cells < 0.001     : 0
    faces with face twist < 0.001                          : 16
    faces on cells with determinant < 0.0001                : 0
displacementMedialAxis : Iteration 21
Moving mesh using displacement scaling : min:0  max:1
Checking faces in error :
    non-orthogonality > 70  degrees                        : 4
    faces with face pyramid volume < 1e-30                 : 1
    faces with concavity > 80  degrees                     : 0
    faces with skewness > 4   (internal) or 20  (boundary) : 0
    faces with interpolation weights (0..1)  < 0.005       : 0
    faces with volume ratio of neighbour cells < 0.001     : 0
    faces with face twist < 0.001                          : 25
    faces on cells with determinant < 0.0001                : 2
displacementMedialAxis : Iteration 22
Moving mesh using displacement scaling : min:0  max:1
Checking faces in error :
    non-orthogonality > 70  degrees                        : 2
    faces with face pyramid volume < 1e-30                 : 1
    faces with concavity > 80  degrees                     : 0
    faces with skewness > 4   (internal) or 20  (boundary) : 0
    faces with interpolation weights (0..1)  < 0.005       : 0
    faces with volume ratio of neighbour cells < 0.001     : 0
    faces with face twist < 0.001                          : 14
    faces on cells with determinant < 0.0001                : 0
displacementMedialAxis : Iteration 23
Moving mesh using displacement scaling : min:0  max:1
Checking faces in error :
    non-orthogonality > 70  degrees                        : 4
    faces with face pyramid volume < 1e-30                 : 1
    faces with concavity > 80  degrees                     : 0
    faces with skewness > 4   (internal) or 20  (boundary) : 0
    faces with interpolation weights (0..1)  < 0.005       : 0
    faces with volume ratio of neighbour cells < 0.001     : 0
    faces with face twist < 0.001                          : 4
    faces on cells with determinant < 0.0001                : 5
displacementMedialAxis : Iteration 24
Moving mesh using displacement scaling : min:0  max:1
Checking faces in error :
    non-orthogonality > 70  degrees                        : 3
    faces with face pyramid volume < 1e-30                 : 0
    faces with concavity > 80  degrees                     : 1
    faces with skewness > 4   (internal) or 20  (boundary) : 0
    faces with interpolation weights (0..1)  < 0.005       : 0
    faces with volume ratio of neighbour cells < 0.001     : 0
    faces with face twist < 0.001                          : 7
    faces on cells with determinant < 0.0001                : 5
displacementMedialAxis : Iteration 25
Moving mesh using displacement scaling : min:0  max:1
Checking faces in error :
    non-orthogonality > 70  degrees                        : 2
    faces with face pyramid volume < 1e-30                 : 0
    faces with concavity > 80  degrees                     : 0
    faces with skewness > 4   (internal) or 20  (boundary) : 0
    faces with interpolation weights (0..1)  < 0.005       : 0
    faces with volume ratio of neighbour cells < 0.001     : 0
    faces with face twist < 0.001                          : 3
    faces on cells with determinant < 0.0001                : 3
displacementMedialAxis : Iteration 26
Moving mesh using displacement scaling : min:0  max:1
Checking faces in error :
    non-orthogonality > 70  degrees                        : 0
    faces with face pyramid volume < 1e-30                 : 0
    faces with concavity > 80  degrees                     : 0
    faces with skewness > 4   (internal) or 20  (boundary) : 0
    faces with interpolation weights (0..1)  < 0.005       : 0
    faces with volume ratio of neighbour cells < 0.001     : 0
    faces with face twist < 0.001                          : 0
    faces on cells with determinant < 0.0001                : 0
displacementMedialAxis : Successfully moved mesh
displacementMedialAxis : Finished moving mesh ...
truncateDisplacement : Unextruded 0 faces due to non-consecutive vertices being extruded.
truncateDisplacement : Unextruded 0 faces due to stringed edges with inconsistent extrusion.

Setting up information for layer truncation ...

Checking mesh with layer ...
Checking faces in error :
    non-orthogonality > 70  degrees                        : 309
    faces with face pyramid volume < 1e-30                 : 23
    faces with concavity > 80  degrees                     : 4
    faces with skewness > 4   (internal) or 20  (boundary) : 0
    faces with interpolation weights (0..1)  < 0.005       : 5
    faces with volume ratio of neighbour cells < 0.001     : 0
    faces with face twist < 0.001                          : 110
    faces on cells with determinant < 0.0001                : 48
Detected 499 illegal faces (concave, zero area or negative cell pyramid volume)
[3] Checked mesh with layers. Disabled extrusion at 
[3]     (-0.138150431 0.743496672 0.00245657652)
[3]     (-0.125950556 0.745030544 0.00402709411)
[0] Checked mesh with layers. Disabled extrusion at 
[0]     (-0.137192376 1.31094382 0.98771591)
[0]     (-0.138068575 1.31265355 0.987127862)
Suppressed disabled extrusion message for other 159 faces.
[1] Checked mesh with layers. Disabled extrusion at 
[1]     (0.012295537 1.19212568 1.19237553)
[1]     (-0.00623927617 1.19585388 1.20008006)
[2] Checked mesh with layers. Disabled extrusion at 
[2]     (0.174474933 0.759655548 0.00224551997)
[2]     (0.120970398 1.24151094 0.663534652)
Extruding 174777 out of 175325 faces (99.6874376%). Removed extrusion at 167 faces.
Added 865623 out of 876625 cells (98.7449594%).

Growing non-extrusion points by one layer ...
Set displacement to zero for an additional 1962 points.


Layer addition iteration 1
--------------------------

Determining displacement for added points according to pointNormal ...
Detected 0 points with point normal pointing through faces.
Reset displacement at 0 points to average of surrounding points.

displacementMedialAxis : Smoothing using Medial Axis ...
displacementMedialAxis : Reducing layer thickness at 0 nodes where thickness to medial axis distance is large 
displacementMedialAxis : Removing isolated regions ...
displacementMedialAxis : Number of isolated points extrusion stopped : 133
displacementMedialAxis : Smoothing field ...
    Iteration 0   residual 3.06180948e-06
displacementMedialAxis : Moving mesh ...
displacementMedialAxis : Iteration 0
Moving mesh using displacement scaling : min:1  max:1
Checking faces in error :
    non-orthogonality > 70  degrees                        : 149
    faces with face pyramid volume < 1e-30                 : 23
    faces with concavity > 80  degrees                     : 23
    faces with skewness > 4   (internal) or 20  (boundary) : 0
    faces with interpolation weights (0..1)  < 0.005       : 1
    faces with volume ratio of neighbour cells < 0.001     : 1
    faces with face twist < 0.001                          : 173
    faces on cells with determinant < 0.0001                : 16
displacementMedialAxis : Iteration 1
Moving mesh using displacement scaling : min:0.75  max:1
Checking faces in error :
    non-orthogonality > 70  degrees                        : 21
    faces with face pyramid volume < 1e-30                 : 5
    faces with concavity > 80  degrees                     : 2
    faces with skewness > 4   (internal) or 20  (boundary) : 0
    faces with interpolation weights (0..1)  < 0.005       : 0
    faces with volume ratio of neighbour cells < 0.001     : 0
    faces with face twist < 0.001                          : 56
    faces on cells with determinant < 0.0001                : 15
displacementMedialAxis : Iteration 2
Moving mesh using displacement scaling : min:0.5625  max:1
Checking faces in error :
    non-orthogonality > 70  degrees                        : 7
    faces with face pyramid volume < 1e-30                 : 2
    faces with concavity > 80  degrees                     : 3
    faces with skewness > 4   (internal) or 20  (boundary) : 0
    faces with interpolation weights (0..1)  < 0.005       : 0
    faces with volume ratio of neighbour cells < 0.001     : 0
    faces with face twist < 0.001                          : 25
    faces on cells with determinant < 0.0001                : 3
displacementMedialAxis : Iteration 3
Moving mesh using displacement scaling : min:0.421875  max:1
Checking faces in error :
    non-orthogonality > 70  degrees                        : 2
    faces with face pyramid volume < 1e-30                 : 1
    faces with concavity > 80  degrees                     : 2
    faces with skewness > 4   (internal) or 20  (boundary) : 0
    faces with interpolation weights (0..1)  < 0.005       : 0
    faces with volume ratio of neighbour cells < 0.001     : 0
    faces with face twist < 0.001                          : 17
    faces on cells with determinant < 0.0001                : 3
displacementMedialAxis : Iteration 4
Moving mesh using displacement scaling : min:0.31640625  max:1
Checking faces in error :
    non-orthogonality > 70  degrees                        : 2
    faces with face pyramid volume < 1e-30                 : 1
    faces with concavity > 80  degrees                     : 2
    faces with skewness > 4   (internal) or 20  (boundary) : 0
    faces with interpolation weights (0..1)  < 0.005       : 0
    faces with volume ratio of neighbour cells < 0.001     : 0
    faces with face twist < 0.001                          : 8
    faces on cells with determinant < 0.0001                : 0
displacementMedialAxis : Iteration 5
Moving mesh using displacement scaling : min:0.237304688  max:1
Checking faces in error :
    non-orthogonality > 70  degrees                        : 2
    faces with face pyramid volume < 1e-30                 : 1
    faces with concavity > 80  degrees                     : 2
    faces with skewness > 4   (internal) or 20  (boundary) : 0
    faces with interpolation weights (0..1)  < 0.005       : 0
    faces with volume ratio of neighbour cells < 0.001     : 0
    faces with face twist < 0.001                          : 7
    faces on cells with determinant < 0.0001                : 0
displacementMedialAxis : Iteration 6
Moving mesh using displacement scaling : min:0.177978516  max:1
Checking faces in error :
    non-orthogonality > 70  degrees                        : 2
    faces with face pyramid volume < 1e-30                 : 1
    faces with concavity > 80  degrees                     : 2
    faces with skewness > 4   (internal) or 20  (boundary) : 0
    faces with interpolation weights (0..1)  < 0.005       : 0
    faces with volume ratio of neighbour cells < 0.001     : 0
    faces with face twist < 0.001                          : 4
    faces on cells with determinant < 0.0001                : 0
displacementMedialAxis : Iteration 7
Moving mesh using displacement scaling : min:0.133483887  max:1
Checking faces in error :
    non-orthogonality > 70  degrees                        : 2
    faces with face pyramid volume < 1e-30                 : 0
    faces with concavity > 80  degrees                     : 2
    faces with skewness > 4   (internal) or 20  (boundary) : 0
    faces with interpolation weights (0..1)  < 0.005       : 0
    faces with volume ratio of neighbour cells < 0.001     : 0
    faces with face twist < 0.001                          : 3
    faces on cells with determinant < 0.0001                : 0
displacementMedialAxis : Iteration 8
Moving mesh using displacement scaling : min:0.100112915  max:1
Checking faces in error :
    non-orthogonality > 70  degrees                        : 1
    faces with face pyramid volume < 1e-30                 : 0
    faces with concavity > 80  degrees                     : 2
    faces with skewness > 4   (internal) or 20  (boundary) : 0
    faces with interpolation weights (0..1)  < 0.005       : 0
    faces with volume ratio of neighbour cells < 0.001     : 0
    faces with face twist < 0.001                          : 4
    faces on cells with determinant < 0.0001                : 0
displacementMedialAxis : Iteration 9
Moving mesh using displacement scaling : min:0.0750846863  max:1
Checking faces in error :
    non-orthogonality > 70  degrees                        : 1
    faces with face pyramid volume < 1e-30                 : 0
    faces with concavity > 80  degrees                     : 2
    faces with skewness > 4   (internal) or 20  (boundary) : 0
    faces with interpolation weights (0..1)  < 0.005       : 0
    faces with volume ratio of neighbour cells < 0.001     : 0
    faces with face twist < 0.001                          : 3
    faces on cells with determinant < 0.0001                : 0
displacementMedialAxis : Iteration 10
Moving mesh using displacement scaling : min:0.0563135147  max:1
Checking faces in error :
    non-orthogonality > 70  degrees                        : 1
    faces with face pyramid volume < 1e-30                 : 0
    faces with concavity > 80  degrees                     : 1
    faces with skewness > 4   (internal) or 20  (boundary) : 0
    faces with interpolation weights (0..1)  < 0.005       : 0
    faces with volume ratio of neighbour cells < 0.001     : 0
    faces with face twist < 0.001                          : 3
    faces on cells with determinant < 0.0001                : 0
displacementMedialAxis : Iteration 11
Moving mesh using displacement scaling : min:0.042235136  max:1
Checking faces in error :
    non-orthogonality > 70  degrees                        : 1
    faces with face pyramid volume < 1e-30                 : 0
    faces with concavity > 80  degrees                     : 1
    faces with skewness > 4   (internal) or 20  (boundary) : 0
    faces with interpolation weights (0..1)  < 0.005       : 0
    faces with volume ratio of neighbour cells < 0.001     : 0
    faces with face twist < 0.001                          : 3
    faces on cells with determinant < 0.0001                : 0
displacementMedialAxis : Iteration 12
Moving mesh using displacement scaling : min:0.031676352  max:1
Checking faces in error :
    non-orthogonality > 70  degrees                        : 1
    faces with face pyramid volume < 1e-30                 : 0
    faces with concavity > 80  degrees                     : 0
    faces with skewness > 4   (internal) or 20  (boundary) : 0
    faces with interpolation weights (0..1)  < 0.005       : 0
    faces with volume ratio of neighbour cells < 0.001     : 0
    faces with face twist < 0.001                          : 4
    faces on cells with determinant < 0.0001                : 0
displacementMedialAxis : Iteration 13
Moving mesh using displacement scaling : min:0.023757264  max:1
Checking faces in error :
    non-orthogonality > 70  degrees                        : 1
    faces with face pyramid volume < 1e-30                 : 0
    faces with concavity > 80  degrees                     : 0
    faces with skewness > 4   (internal) or 20  (boundary) : 0
    faces with interpolation weights (0..1)  < 0.005       : 0
    faces with volume ratio of neighbour cells < 0.001     : 0
    faces with face twist < 0.001                          : 1
    faces on cells with determinant < 0.0001                : 0
displacementMedialAxis : Iteration 14
Moving mesh using displacement scaling : min:0.017817948  max:1
Checking faces in error :
    non-orthogonality > 70  degrees                        : 1
    faces with face pyramid volume < 1e-30                 : 0
    faces with concavity > 80  degrees                     : 0
    faces with skewness > 4   (internal) or 20  (boundary) : 0
    faces with interpolation weights (0..1)  < 0.005       : 0
    faces with volume ratio of neighbour cells < 0.001     : 0
    faces with face twist < 0.001                          : 1
    faces on cells with determinant < 0.0001                : 0
displacementMedialAxis : Iteration 15
Moving mesh using displacement scaling : min:0.013363461  max:1
Checking faces in error :
    non-orthogonality > 70  degrees                        : 1
    faces with face pyramid volume < 1e-30                 : 0
    faces with concavity > 80  degrees                     : 0
    faces with skewness > 4   (internal) or 20  (boundary) : 0
    faces with interpolation weights (0..1)  < 0.005       : 0
    faces with volume ratio of neighbour cells < 0.001     : 0
    faces with face twist < 0.001                          : 1
    faces on cells with determinant < 0.0001                : 0
displacementMedialAxis : Iteration 16
Moving mesh using displacement scaling : min:0.0100225958  max:1
Checking faces in error :
    non-orthogonality > 70  degrees                        : 1
    faces with face pyramid volume < 1e-30                 : 0
    faces with concavity > 80  degrees                     : 0
    faces with skewness > 4   (internal) or 20  (boundary) : 0
    faces with interpolation weights (0..1)  < 0.005       : 0
    faces with volume ratio of neighbour cells < 0.001     : 0
    faces with face twist < 0.001                          : 1
    faces on cells with determinant < 0.0001                : 0
displacementMedialAxis : Iteration 17
Moving mesh using displacement scaling : min:0.00751694682  max:1
Checking faces in error :
    non-orthogonality > 70  degrees                        : 1
    faces with face pyramid volume < 1e-30                 : 0
    faces with concavity > 80  degrees                     : 0
    faces with skewness > 4   (internal) or 20  (boundary) : 0
    faces with interpolation weights (0..1)  < 0.005       : 0
    faces with volume ratio of neighbour cells < 0.001     : 0
    faces with face twist < 0.001                          : 1
    faces on cells with determinant < 0.0001                : 0
displacementMedialAxis : Iteration 18
Moving mesh using displacement scaling : min:0.00563771011  max:1
Checking faces in error :
    non-orthogonality > 70  degrees                        : 1
    faces with face pyramid volume < 1e-30                 : 0
    faces with concavity > 80  degrees                     : 0
    faces with skewness > 4   (internal) or 20  (boundary) : 0
    faces with interpolation weights (0..1)  < 0.005       : 0
    faces with volume ratio of neighbour cells < 0.001     : 0
    faces with face twist < 0.001                          : 1
    faces on cells with determinant < 0.0001                : 0
displacementMedialAxis : Iteration 19
Moving mesh using displacement scaling : min:0.00422828259  max:1
Checking faces in error :
    non-orthogonality > 70  degrees                        : 1
    faces with face pyramid volume < 1e-30                 : 0
    faces with concavity > 80  degrees                     : 0
    faces with skewness > 4   (internal) or 20  (boundary) : 0
    faces with interpolation weights (0..1)  < 0.005       : 0
    faces with volume ratio of neighbour cells < 0.001     : 0
    faces with face twist < 0.001                          : 1
    faces on cells with determinant < 0.0001                : 0
displacementMedialAxis : Iteration 20
displacementMedialAxis : Displacement scaling for error reduction set to 0.
Moving mesh using displacement scaling : min:0.00317121194  max:1
Checking faces in error :
    non-orthogonality > 70  degrees                        : 1
    faces with face pyramid volume < 1e-30                 : 0
    faces with concavity > 80  degrees                     : 0
    faces with skewness > 4   (internal) or 20  (boundary) : 0
    faces with interpolation weights (0..1)  < 0.005       : 0
    faces with volume ratio of neighbour cells < 0.001     : 0
    faces with face twist < 0.001                          : 1
    faces on cells with determinant < 0.0001                : 0
displacementMedialAxis : Iteration 21
Moving mesh using displacement scaling : min:0  max:1
Checking faces in error :
    non-orthogonality > 70  degrees                        : 0
    faces with face pyramid volume < 1e-30                 : 0
    faces with concavity > 80  degrees                     : 0
    faces with skewness > 4   (internal) or 20  (boundary) : 0
    faces with interpolation weights (0..1)  < 0.005       : 0
    faces with volume ratio of neighbour cells < 0.001     : 0
    faces with face twist < 0.001                          : 2
    faces on cells with determinant < 0.0001                : 0
displacementMedialAxis : Iteration 22
Moving mesh using displacement scaling : min:0  max:1
Checking faces in error :
    non-orthogonality > 70  degrees                        : 0
    faces with face pyramid volume < 1e-30                 : 0
    faces with concavity > 80  degrees                     : 0
    faces with skewness > 4   (internal) or 20  (boundary) : 0
    faces with interpolation weights (0..1)  < 0.005       : 0
    faces with volume ratio of neighbour cells < 0.001     : 0
    faces with face twist < 0.001                          : 0
    faces on cells with determinant < 0.0001                : 0
displacementMedialAxis : Successfully moved mesh
displacementMedialAxis : Finished moving mesh ...
truncateDisplacement : Unextruded 5 faces due to non-consecutive vertices being extruded.
truncateDisplacement : Unextruded 3 faces due to stringed edges with inconsistent extrusion.
truncateDisplacement : Unextruded 0 faces due to non-consecutive vertices being extruded.
truncateDisplacement : Unextruded 0 faces due to stringed edges with inconsistent extrusion.

Setting up information for layer truncation ...

Checking mesh with layer ...
Checking faces in error :
    non-orthogonality > 70  degrees                        : 3
    faces with face pyramid volume < 1e-30                 : 0
    faces with concavity > 80  degrees                     : 4
    faces with skewness > 4   (internal) or 20  (boundary) : 0
    faces with interpolation weights (0..1)  < 0.005       : 1
    faces with volume ratio of neighbour cells < 0.001     : 0
    faces with face twist < 0.001                          : 31
    faces on cells with determinant < 0.0001                : 0
Detected 39 illegal faces (concave, zero area or negative cell pyramid volume)
[1] Checked mesh with layers. Disabled extrusion at 
[1]     (0.0875355214 1.29286362 1.22463319)
[1]     (0.0841620181 1.28653753 1.21921123)
[3] Checked mesh with layers. Disabled extrusion at 
[3]     (-0.154243062 0.805681144 0.00341412387)
[3]     (-0.152831339 0.806880569 0.00391293079)
[0] Checked mesh with layers. Disabled extrusion at 
[2] Checked mesh with layers. Disabled extrusion at 
[2]     (0.120042763 1.24241995 0.667620673)
[2]     (0.217937431 1.18227901 0.419224391)
[0]     (0.145874421 1.30262844 0.994689159)
[0]     (0.14909076 1.30697815 0.991487976)
Suppressed disabled extrusion message for other 32 faces.
Extruding 173250 out of 175325 faces (98.8164837%). Removed extrusion at 40 faces.
Added 843130 out of 876625 cells (96.179096%).

Growing non-extrusion points by one layer ...
Set displacement to zero for an additional 2799 points.


Layer addition iteration 2
--------------------------
Switched to relaxed meshQuality constraints.

Determining displacement for added points according to pointNormal ...
Detected 0 points with point normal pointing through faces.
Reset displacement at 0 points to average of surrounding points.

displacementMedialAxis : Smoothing using Medial Axis ...
displacementMedialAxis : Reducing layer thickness at 0 nodes where thickness to medial axis distance is large 
displacementMedialAxis : Removing isolated regions ...
displacementMedialAxis : Number of isolated points extrusion stopped : 155
displacementMedialAxis : Smoothing field ...
    Iteration 0   residual 3.89100498e-06
displacementMedialAxis : Moving mesh ...
displacementMedialAxis : Iteration 0
Moving mesh using displacement scaling : min:1  max:1
Checking faces in error :
    non-orthogonality > 75  degrees                        : 54
    faces with face pyramid volume < 1e-60                 : 22
    faces with concavity > 80  degrees                     : 30
    faces with skewness > 5   (internal) or 20  (boundary) : 0
    faces with interpolation weights (0..1)  < 0           : 0
    faces with volume ratio of neighbour cells < 0         : 0
    faces on cells with determinant < 0                    : 0
displacementMedialAxis : Iteration 1
Moving mesh using displacement scaling : min:0.75  max:1
Checking faces in error :
    non-orthogonality > 75  degrees                        : 9
    faces with face pyramid volume < 1e-60                 : 9
    faces with concavity > 80  degrees                     : 2
    faces with skewness > 5   (internal) or 20  (boundary) : 0
    faces with interpolation weights (0..1)  < 0           : 0
    faces with volume ratio of neighbour cells < 0         : 0
    faces on cells with determinant < 0                    : 0
displacementMedialAxis : Iteration 2
Moving mesh using displacement scaling : min:0.5625  max:1
Checking faces in error :
    non-orthogonality > 75  degrees                        : 2
    faces with face pyramid volume < 1e-60                 : 6
    faces with concavity > 80  degrees                     : 0
    faces with skewness > 5   (internal) or 20  (boundary) : 0
    faces with interpolation weights (0..1)  < 0           : 0
    faces with volume ratio of neighbour cells < 0         : 0
    faces on cells with determinant < 0                    : 0
displacementMedialAxis : Iteration 3
Moving mesh using displacement scaling : min:0.421875  max:1
Checking faces in error :
    non-orthogonality > 75  degrees                        : 0
    faces with face pyramid volume < 1e-60                 : 7
    faces with concavity > 80  degrees                     : 0
    faces with skewness > 5   (internal) or 20  (boundary) : 0
    faces with interpolation weights (0..1)  < 0           : 0
    faces with volume ratio of neighbour cells < 0         : 0
    faces on cells with determinant < 0                    : 0
displacementMedialAxis : Iteration 4
Moving mesh using displacement scaling : min:0.31640625  max:1
Checking faces in error :
    non-orthogonality > 75  degrees                        : 0
    faces with face pyramid volume < 1e-60                 : 5
    faces with concavity > 80  degrees                     : 0
    faces with skewness > 5   (internal) or 20  (boundary) : 0
    faces with interpolation weights (0..1)  < 0           : 0
    faces with volume ratio of neighbour cells < 0         : 0
    faces on cells with determinant < 0                    : 0
displacementMedialAxis : Iteration 5
Moving mesh using displacement scaling : min:0.237304688  max:1
Checking faces in error :
    non-orthogonality > 75  degrees                        : 0
    faces with face pyramid volume < 1e-60                 : 4
    faces with concavity > 80  degrees                     : 0
    faces with skewness > 5   (internal) or 20  (boundary) : 0
    faces with interpolation weights (0..1)  < 0           : 0
    faces with volume ratio of neighbour cells < 0         : 0
    faces on cells with determinant < 0                    : 0
displacementMedialAxis : Iteration 6
Moving mesh using displacement scaling : min:0.177978516  max:1
Checking faces in error :
    non-orthogonality > 75  degrees                        : 0
    faces with face pyramid volume < 1e-60                 : 4
    faces with concavity > 80  degrees                     : 0
    faces with skewness > 5   (internal) or 20  (boundary) : 0
    faces with interpolation weights (0..1)  < 0           : 0
    faces with volume ratio of neighbour cells < 0         : 0
    faces on cells with determinant < 0                    : 0
displacementMedialAxis : Iteration 7
Moving mesh using displacement scaling : min:0.133483887  max:1
Checking faces in error :
    non-orthogonality > 75  degrees                        : 0
    faces with face pyramid volume < 1e-60                 : 1
    faces with concavity > 80  degrees                     : 0
    faces with skewness > 5   (internal) or 20  (boundary) : 0
    faces with interpolation weights (0..1)  < 0           : 0
    faces with volume ratio of neighbour cells < 0         : 0
    faces on cells with determinant < 0                    : 0
displacementMedialAxis : Iteration 8
Moving mesh using displacement scaling : min:0.100112915  max:1
Checking faces in error :
    non-orthogonality > 75  degrees                        : 0
    faces with face pyramid volume < 1e-60                 : 1
    faces with concavity > 80  degrees                     : 0
    faces with skewness > 5   (internal) or 20  (boundary) : 0
    faces with interpolation weights (0..1)  < 0           : 0
    faces with volume ratio of neighbour cells < 0         : 0
    faces on cells with determinant < 0                    : 0
displacementMedialAxis : Iteration 9
Moving mesh using displacement scaling : min:0.0750846863  max:1
Checking faces in error :
    non-orthogonality > 75  degrees                        : 0
    faces with face pyramid volume < 1e-60                 : 1
    faces with concavity > 80  degrees                     : 0
    faces with skewness > 5   (internal) or 20  (boundary) : 0
    faces with interpolation weights (0..1)  < 0           : 0
    faces with volume ratio of neighbour cells < 0         : 0
    faces on cells with determinant < 0                    : 0
displacementMedialAxis : Iteration 10
Moving mesh using displacement scaling : min:0.0563135147  max:1
Checking faces in error :
    non-orthogonality > 75  degrees                        : 0
    faces with face pyramid volume < 1e-60                 : 1
    faces with concavity > 80  degrees                     : 0
    faces with skewness > 5   (internal) or 20  (boundary) : 0
    faces with interpolation weights (0..1)  < 0           : 0
    faces with volume ratio of neighbour cells < 0         : 0
    faces on cells with determinant < 0                    : 0
displacementMedialAxis : Iteration 11
Moving mesh using displacement scaling : min:0.042235136  max:1
Checking faces in error :
    non-orthogonality > 75  degrees                        : 0
    faces with face pyramid volume < 1e-60                 : 1
    faces with concavity > 80  degrees                     : 0
    faces with skewness > 5   (internal) or 20  (boundary) : 0
    faces with interpolation weights (0..1)  < 0           : 0
    faces with volume ratio of neighbour cells < 0         : 0
    faces on cells with determinant < 0                    : 0
displacementMedialAxis : Iteration 12
Moving mesh using displacement scaling : min:0.031676352  max:1
Checking faces in error :
    non-orthogonality > 75  degrees                        : 0
    faces with face pyramid volume < 1e-60                 : 1
    faces with concavity > 80  degrees                     : 0
    faces with skewness > 5   (internal) or 20  (boundary) : 0
    faces with interpolation weights (0..1)  < 0           : 0
    faces with volume ratio of neighbour cells < 0         : 0
    faces on cells with determinant < 0                    : 0
displacementMedialAxis : Iteration 13
Moving mesh using displacement scaling : min:0.023757264  max:1
Checking faces in error :
    non-orthogonality > 75  degrees                        : 0
    faces with face pyramid volume < 1e-60                 : 0
    faces with concavity > 80  degrees                     : 0
    faces with skewness > 5   (internal) or 20  (boundary) : 0
    faces with interpolation weights (0..1)  < 0           : 0
    faces with volume ratio of neighbour cells < 0         : 0
    faces on cells with determinant < 0                    : 0
displacementMedialAxis : Successfully moved mesh
displacementMedialAxis : Finished moving mesh ...
truncateDisplacement : Unextruded 1 faces due to non-consecutive vertices being extruded.
truncateDisplacement : Unextruded 9 faces due to stringed edges with inconsistent extrusion.
truncateDisplacement : Unextruded 1 faces due to non-consecutive vertices being extruded.
truncateDisplacement : Unextruded 0 faces due to stringed edges with inconsistent extrusion.
truncateDisplacement : Unextruded 0 faces due to non-consecutive vertices being extruded.
truncateDisplacement : Unextruded 0 faces due to stringed edges with inconsistent extrusion.

Setting up information for layer truncation ...

Checking mesh with layer ...
Checking faces in error :
    non-orthogonality > 75  degrees                        : 0
    faces with face pyramid volume < 1e-60                 : 0
    faces with concavity > 80  degrees                     : 1
    faces with skewness > 5   (internal) or 20  (boundary) : 0
    faces with interpolation weights (0..1)  < 0           : 0
    faces with volume ratio of neighbour cells < 0         : 0
    faces on cells with determinant < 0                    : 0
Detected 1 illegal faces (concave, zero area or negative cell pyramid volume)
[3] Checked mesh with layers. Disabled extrusion at 
[3]     (-0.12322402 0.985254282 0.426276967)
Extruding 171125 out of 175325 faces (97.6044489%). Removed extrusion at 1 faces.
Added 828883 out of 876625 cells (94.5538856%).

Growing non-extrusion points by one layer ...
Set displacement to zero for an additional 3280 points.


Layer addition iteration 3
--------------------------
Switched to relaxed meshQuality constraints.

Determining displacement for added points according to pointNormal ...
Detected 0 points with point normal pointing through faces.
Reset displacement at 0 points to average of surrounding points.

displacementMedialAxis : Smoothing using Medial Axis ...
displacementMedialAxis : Reducing layer thickness at 0 nodes where thickness to medial axis distance is large 
displacementMedialAxis : Removing isolated regions ...
displacementMedialAxis : Number of isolated points extrusion stopped : 144
displacementMedialAxis : Smoothing field ...
    Iteration 0   residual 4.44391302e-06
displacementMedialAxis : Moving mesh ...
displacementMedialAxis : Iteration 0
Moving mesh using displacement scaling : min:1  max:1
Checking faces in error :
    non-orthogonality > 75  degrees                        : 64
    faces with face pyramid volume < 1e-60                 : 24
    faces with concavity > 80  degrees                     : 31
    faces with skewness > 5   (internal) or 20  (boundary) : 0
    faces with interpolation weights (0..1)  < 0           : 0
    faces with volume ratio of neighbour cells < 0         : 0
    faces on cells with determinant < 0                    : 0
displacementMedialAxis : Iteration 1
Moving mesh using displacement scaling : min:0.75  max:1
Checking faces in error :
    non-orthogonality > 75  degrees                        : 14
    faces with face pyramid volume < 1e-60                 : 4
    faces with concavity > 80  degrees                     : 2
    faces with skewness > 5   (internal) or 20  (boundary) : 0
    faces with interpolation weights (0..1)  < 0           : 0
    faces with volume ratio of neighbour cells < 0         : 0
    faces on cells with determinant < 0                    : 0
displacementMedialAxis : Iteration 2
Moving mesh using displacement scaling : min:0.5625  max:1
Checking faces in error :
    non-orthogonality > 75  degrees                        : 6
    faces with face pyramid volume < 1e-60                 : 1
    faces with concavity > 80  degrees                     : 0
    faces with skewness > 5   (internal) or 20  (boundary) : 0
    faces with interpolation weights (0..1)  < 0           : 0
    faces with volume ratio of neighbour cells < 0         : 0
    faces on cells with determinant < 0                    : 0
displacementMedialAxis : Iteration 3
Moving mesh using displacement scaling : min:0.421875  max:1
Checking faces in error :
    non-orthogonality > 75  degrees                        : 6
    faces with face pyramid volume < 1e-60                 : 1
    faces with concavity > 80  degrees                     : 0
    faces with skewness > 5   (internal) or 20  (boundary) : 0
    faces with interpolation weights (0..1)  < 0           : 0
    faces with volume ratio of neighbour cells < 0         : 0
    faces on cells with determinant < 0                    : 0
displacementMedialAxis : Iteration 4
Moving mesh using displacement scaling : min:0.31640625  max:1
Checking faces in error :
    non-orthogonality > 75  degrees                        : 4
    faces with face pyramid volume < 1e-60                 : 1
    faces with concavity > 80  degrees                     : 0
    faces with skewness > 5   (internal) or 20  (boundary) : 0
    faces with interpolation weights (0..1)  < 0           : 0
    faces with volume ratio of neighbour cells < 0         : 0
    faces on cells with determinant < 0                    : 0
displacementMedialAxis : Iteration 5
Moving mesh using displacement scaling : min:0.237304688  max:1
Checking faces in error :
    non-orthogonality > 75  degrees                        : 4
    faces with face pyramid volume < 1e-60                 : 1
    faces with concavity > 80  degrees                     : 0
    faces with skewness > 5   (internal) or 20  (boundary) : 0
    faces with interpolation weights (0..1)  < 0           : 0
    faces with volume ratio of neighbour cells < 0         : 0
    faces on cells with determinant < 0                    : 0
displacementMedialAxis : Iteration 6
Moving mesh using displacement scaling : min:0.177978516  max:1
Checking faces in error :
    non-orthogonality > 75  degrees                        : 4
    faces with face pyramid volume < 1e-60                 : 1
    faces with concavity > 80  degrees                     : 0
    faces with skewness > 5   (internal) or 20  (boundary) : 0
    faces with interpolation weights (0..1)  < 0           : 0
    faces with volume ratio of neighbour cells < 0         : 0
    faces on cells with determinant < 0                    : 0
displacementMedialAxis : Iteration 7
Moving mesh using displacement scaling : min:0.133483887  max:1
Checking faces in error :
    non-orthogonality > 75  degrees                        : 4
    faces with face pyramid volume < 1e-60                 : 1
    faces with concavity > 80  degrees                     : 0
    faces with skewness > 5   (internal) or 20  (boundary) : 0
    faces with interpolation weights (0..1)  < 0           : 0
    faces with volume ratio of neighbour cells < 0         : 0
    faces on cells with determinant < 0                    : 0
displacementMedialAxis : Iteration 8
Moving mesh using displacement scaling : min:0.100112915  max:1
Checking faces in error :
    non-orthogonality > 75  degrees                        : 4
    faces with face pyramid volume < 1e-60                 : 1
    faces with concavity > 80  degrees                     : 0
    faces with skewness > 5   (internal) or 20  (boundary) : 0
    faces with interpolation weights (0..1)  < 0           : 0
    faces with volume ratio of neighbour cells < 0         : 0
    faces on cells with determinant < 0                    : 0
displacementMedialAxis : Iteration 9
Moving mesh using displacement scaling : min:0.0750846863  max:1
Checking faces in error :
    non-orthogonality > 75  degrees                        : 4
    faces with face pyramid volume < 1e-60                 : 0
    faces with concavity > 80  degrees                     : 0
    faces with skewness > 5   (internal) or 20  (boundary) : 0
    faces with interpolation weights (0..1)  < 0           : 0
    faces with volume ratio of neighbour cells < 0         : 0
    faces on cells with determinant < 0                    : 0
displacementMedialAxis : Iteration 10
Moving mesh using displacement scaling : min:0.0563135147  max:1
Checking faces in error :
    non-orthogonality > 75  degrees                        : 4
    faces with face pyramid volume < 1e-60                 : 0
    faces with concavity > 80  degrees                     : 0
    faces with skewness > 5   (internal) or 20  (boundary) : 0
    faces with interpolation weights (0..1)  < 0           : 0
    faces with volume ratio of neighbour cells < 0         : 0
    faces on cells with determinant < 0                    : 0
displacementMedialAxis : Iteration 11
Moving mesh using displacement scaling : min:0.042235136  max:1
Checking faces in error :
    non-orthogonality > 75  degrees                        : 4
    faces with face pyramid volume < 1e-60                 : 0
    faces with concavity > 80  degrees                     : 0
    faces with skewness > 5   (internal) or 20  (boundary) : 0
    faces with interpolation weights (0..1)  < 0           : 0
    faces with volume ratio of neighbour cells < 0         : 0
    faces on cells with determinant < 0                    : 0
displacementMedialAxis : Iteration 12
Moving mesh using displacement scaling : min:0.031676352  max:1
Checking faces in error :
    non-orthogonality > 75  degrees                        : 4
    faces with face pyramid volume < 1e-60                 : 0
    faces with concavity > 80  degrees                     : 0
    faces with skewness > 5   (internal) or 20  (boundary) : 0
    faces with interpolation weights (0..1)  < 0           : 0
    faces with volume ratio of neighbour cells < 0         : 0
    faces on cells with determinant < 0                    : 0
displacementMedialAxis : Iteration 13
Moving mesh using displacement scaling : min:0.023757264  max:1
Checking faces in error :
    non-orthogonality > 75  degrees                        : 3
    faces with face pyramid volume < 1e-60                 : 0
    faces with concavity > 80  degrees                     : 0
    faces with skewness > 5   (internal) or 20  (boundary) : 0
    faces with interpolation weights (0..1)  < 0           : 0
    faces with volume ratio of neighbour cells < 0         : 0
    faces on cells with determinant < 0                    : 0
displacementMedialAxis : Iteration 14
Moving mesh using displacement scaling : min:0.017817948  max:1
Checking faces in error :
    non-orthogonality > 75  degrees                        : 3
    faces with face pyramid volume < 1e-60                 : 0
    faces with concavity > 80  degrees                     : 0
    faces with skewness > 5   (internal) or 20  (boundary) : 0
    faces with interpolation weights (0..1)  < 0           : 0
    faces with volume ratio of neighbour cells < 0         : 0
    faces on cells with determinant < 0                    : 0
displacementMedialAxis : Iteration 15
Moving mesh using displacement scaling : min:0.013363461  max:1
Checking faces in error :
    non-orthogonality > 75  degrees                        : 3
    faces with face pyramid volume < 1e-60                 : 0
    faces with concavity > 80  degrees                     : 0
    faces with skewness > 5   (internal) or 20  (boundary) : 0
    faces with interpolation weights (0..1)  < 0           : 0
    faces with volume ratio of neighbour cells < 0         : 0
    faces on cells with determinant < 0                    : 0
displacementMedialAxis : Iteration 16
Moving mesh using displacement scaling : min:0.0100225958  max:1
Checking faces in error :
    non-orthogonality > 75  degrees                        : 3
    faces with face pyramid volume < 1e-60                 : 0
    faces with concavity > 80  degrees                     : 0
    faces with skewness > 5   (internal) or 20  (boundary) : 0
    faces with interpolation weights (0..1)  < 0           : 0
    faces with volume ratio of neighbour cells < 0         : 0
    faces on cells with determinant < 0                    : 0
displacementMedialAxis : Iteration 17
Moving mesh using displacement scaling : min:0.00751694682  max:1
Checking faces in error :
    non-orthogonality > 75  degrees                        : 3
    faces with face pyramid volume < 1e-60                 : 0
    faces with concavity > 80  degrees                     : 0
    faces with skewness > 5   (internal) or 20  (boundary) : 0
    faces with interpolation weights (0..1)  < 0           : 0
    faces with volume ratio of neighbour cells < 0         : 0
    faces on cells with determinant < 0                    : 0
displacementMedialAxis : Iteration 18
Moving mesh using displacement scaling : min:0.00563771011  max:1
Checking faces in error :
    non-orthogonality > 75  degrees                        : 3
    faces with face pyramid volume < 1e-60                 : 0
    faces with concavity > 80  degrees                     : 0
    faces with skewness > 5   (internal) or 20  (boundary) : 0
    faces with interpolation weights (0..1)  < 0           : 0
    faces with volume ratio of neighbour cells < 0         : 0
    faces on cells with determinant < 0                    : 0
displacementMedialAxis : Iteration 19
Moving mesh using displacement scaling : min:0.00422828259  max:1
Checking faces in error :
    non-orthogonality > 75  degrees                        : 3
    faces with face pyramid volume < 1e-60                 : 0
    faces with concavity > 80  degrees                     : 0
    faces with skewness > 5   (internal) or 20  (boundary) : 0
    faces with interpolation weights (0..1)  < 0           : 0
    faces with volume ratio of neighbour cells < 0         : 0
    faces on cells with determinant < 0                    : 0
displacementMedialAxis : Iteration 20
displacementMedialAxis : Displacement scaling for error reduction set to 0.
Moving mesh using displacement scaling : min:0.00317121194  max:1
Checking faces in error :
    non-orthogonality > 75  degrees                        : 3
    faces with face pyramid volume < 1e-60                 : 0
    faces with concavity > 80  degrees                     : 0
    faces with skewness > 5   (internal) or 20  (boundary) : 0
    faces with interpolation weights (0..1)  < 0           : 0
    faces with volume ratio of neighbour cells < 0         : 0
    faces on cells with determinant < 0                    : 0
displacementMedialAxis : Iteration 21
Moving mesh using displacement scaling : min:0  max:1
Checking faces in error :
    non-orthogonality > 75  degrees                        : 0
    faces with face pyramid volume < 1e-60                 : 0
    faces with concavity > 80  degrees                     : 0
    faces with skewness > 5   (internal) or 20  (boundary) : 0
    faces with interpolation weights (0..1)  < 0           : 0
    faces with volume ratio of neighbour cells < 0         : 0
    faces on cells with determinant < 0                    : 0
displacementMedialAxis : Successfully moved mesh
displacementMedialAxis : Finished moving mesh ...
truncateDisplacement : Unextruded 1 faces due to non-consecutive vertices being extruded.
truncateDisplacement : Unextruded 14 faces due to stringed edges with inconsistent extrusion.
truncateDisplacement : Unextruded 0 faces due to non-consecutive vertices being extruded.
truncateDisplacement : Unextruded 0 faces due to stringed edges with inconsistent extrusion.

Setting up information for layer truncation ...

Checking mesh with layer ...
Checking faces in error :
    non-orthogonality > 75  degrees                        : 0
    faces with face pyramid volume < 1e-60                 : 0
    faces with concavity > 80  degrees                     : 0
    faces with skewness > 5   (internal) or 20  (boundary) : 0
    faces with interpolation weights (0..1)  < 0           : 0
    faces with volume ratio of neighbour cells < 0         : 0
    faces on cells with determinant < 0                    : 0
Detected 0 illegal faces (concave, zero area or negative cell pyramid volume)
Extruding 168549 out of 175325 faces (96.1351775%). Removed extrusion at 0 faces.
Added 813757 out of 876625 cells (92.8284044%).
Edge intersection testing:
    Number of edges             : 6326371
    Number of edges to retest   : 0
    Number of intersected edges : 896032

Doing final balancing
---------------------


patch   faces    layers   overall thickness
                          [m]       [%]
-----   -----    ------   ---       ---
manikin 175325   4.64     0.00255   94.6    

Layer mesh : cells:1967613  faces:6326371  points:2428578
Cells per refinement level:
    0	45560
    1	74881
    2	94720
    3	149303
    4	1347792
    5	255357
Writing mesh to time constant
Wrote mesh in = 126.65 s.
Layers added in = 126.65 s.
Checking final mesh ...
Checking faces in error :
    non-orthogonality > 70  degrees                        : 40
    faces with face pyramid volume < 1e-30                 : 0
    faces with concavity > 80  degrees                     : 0
    faces with skewness > 4   (internal) or 20  (boundary) : 0
    faces with interpolation weights (0..1)  < 0.005       : 1
    faces with volume ratio of neighbour cells < 0.001     : 0
    faces with face twist < 0.001                          : 134
    faces on cells with determinant < 0.0001                : 17
Finished meshing with 192 illegal faces (concave, zero area or negative cell pyramid volume)
Finished meshing in = 133.94 s.
End

Finalising parallel run
