/*---------------------------------------------------------------------------*\
| =========                 |                                                 |
| \\      /  F ield         | OpenFOAM: The Open Source CFD Toolbox           |
|  \\    /   O peration     | Version:  2.3.1                                 |
|   \\  /    A nd           | Web:      www.OpenFOAM.org                      |
|    \\/     M anipulation  |                                                 |
\*---------------------------------------------------------------------------*/
Build  : 2.3.1-bcfaaa7b8660
Exec   : snappyHexMesh -parallel -overwrite
Date   : May 16 2017
Time   : 20:24:22
Host   : "ubuntu"
PID    : 3130
Case   : /home/cong/Desktop/AIVC/Case5
nProcs : 4
Slaves : 
3
(
"ubuntu.3131"
"ubuntu.3132"
"ubuntu.3133"
)

Pstream initialized with:
    floatTransfer      : 0
    nProcsSimpleSum    : 0
    commsType          : nonBlocking
    polling iterations : 0
sigFpe : Enabling floating point exception trapping (FOAM_SIGFPE).
fileModificationChecking : Monitoring run-time modified files using timeStampMaster
allowSystemOperations : Allowing user-supplied system call operations

// * * * * * * * * * * * * * * * * * * * * * * * * * * * * * * * * * * * * * //
Create time

Create mesh for time = 0

Read mesh in = 0.78 s

Overall mesh bounding box  : (-0.600000143 -1.43600005e-07 -2.81367617e-05) (0.600000024 2.44000006 2.46000004)
Relative tolerance         : 1e-12
Absolute matching distance : 3.66678879e-12

Reading refinement surfaces.
Read refinement surfaces in = 1.32 s

Reading refinement shells.
Refinement level according to distance to manikin.stl
    level 4 for all cells within 0.012 metre.
    level 3 for all cells within 0.03 metre.
    level 2 for all cells within 0.06 metre.
    level 1 for all cells within 0.12 metre.
Read refinement shells in = 0 s

Setting refinement level of surface to be consistent with shells.
Checked shell refinement in = 0.98 s

Reading features.
Read edgeMesh room.eMesh
    points      : 310
    edges       : 336
    boundingBox : (-0.600000143 -1.43600005e-07 -5.12999989e-08) (0.600000024 2.44000006 2.46000004)

Refinement level according to distance to "room.eMesh" (310 points, 336 edges).
    level 1 for all cells within 0 metre.
Read edgeMesh manikin.eMesh
    points      : 2046
    edges       : 1871
    boundingBox : (-0.262629002 0.729269028 0.00444974983) (0.271382987 1.43563998 1.35169005)

Refinement level according to distance to "manikin.eMesh" (2046 points, 1871 edges).
    level 5 for all cells within 0 metre.
Read features in = 0.08 s


Determining initial surface intersections
-----------------------------------------

Edge intersection testing:
    Number of edges             : 6326371
    Number of edges to retest   : 6326371
    Number of intersected edges : 201838
Calculated surface intersections in = 4.28 s

Initial mesh : cells:1967613  faces:6326371  points:2428578
Cells per refinement level:
    0	45560
    1	74881
    2	94720
    3	149303
    4	1347792
    5	255357

Adding patches for surface regions
----------------------------------

Patch Type                Region                        
----- ----                ------                        
room:

1     wall                room_SIDE2                    
2     wall                room_FLOOR                    
3     wall                room_CEILING                  
4     wall                room_BACK                     
5     wall                room_SIDE1                    
6     patch               room_INLET                    
7     patch               room_OUTLET2                  
8     patch               room_OUTLET1                  

manikin:

9     wall                manikin                       

Added patches in = 0 s

Selecting decompositionMethod ptscotch
Layer thickness specified as overall thickness and expansion ratio.

Shrinking and layer addition phase
----------------------------------

Using mesh parameters 
{
    maxNonOrtho     70;
    maxBoundarySkewness 20;
    maxInternalSkewness 4;
    maxConcave      80;
    minVol          1e-30;
    minTetQuality   -1e+30;
    minVolCollapseRatio -1;
    minArea         -1;
    minTwist        0.001;
    minDeterminant  0.0001;
    minFaceWeight   0.005;
    minVolRatio     0.001;
    minTriangleTwist -1;
    nSmoothScale    4;
    errorReduction  0.75;
    relaxed
    {
        maxNonOrtho     75;
        maxBoundarySkewness 20;
        maxInternalSkewness 5;
        maxConcave      80;
        minVol          1e-60;
        minTetQuality   -1e+30;
        minArea         -1;
        minTwist        -2;
        minDeterminant  0;
        minFaceWeight   0;
        minVolRatio     0;
    }
}



Merging all faces of a cell
---------------------------
    - which are on the same patch
    - which make an angle < 180 degrees
      (cos:-1)
    - as long as the resulting face doesn't become concave by more than 90 degrees
      (0=straight, 180=fully concave)

Merging 88 sets of faces.

Edge intersection testing:
    Number of edges             : 6326259
    Number of edges to retest   : 447
    Number of intersected edges : 201812

Undo iteration 0
----------------
Checking faces in error :
    non-orthogonality > 70  degrees                        : 48
    faces with face pyramid volume < 1e-30                 : 1
    faces with concavity > 80  degrees                     : 18
    faces with skewness > 4   (internal) or 20  (boundary) : 0
    faces with interpolation weights (0..1)  < 0.005       : 1
    faces with volume ratio of neighbour cells < 0.001     : 0
    faces with face twist < 0.001                          : 194
    faces on cells with determinant < 0.0001                : 17
Masters that need to be restored:88
Edge intersection testing:
    Number of edges             : 6326371
    Number of edges to retest   : 559
    Number of intersected edges : 201936


Undo iteration 1
----------------
Checking faces in error :
    non-orthogonality > 70  degrees                        : 40
    faces with face pyramid volume < 1e-30                 : 0
    faces with concavity > 80  degrees                     : 0
    faces with skewness > 4   (internal) or 20  (boundary) : 0
    faces with interpolation weights (0..1)  < 0.005       : 1
    faces with volume ratio of neighbour cells < 0.001     : 0
    faces with face twist < 0.001                          : 134
    faces on cells with determinant < 0.0001                : 17
Masters that need to be restored:0

Merging all points on surface that
- are used by only two boundary faces and
- make an angle with a cosine of more than -1.

Removing 2198 straight edge points ...

Edge intersection testing:
    Number of edges             : 6326371
    Number of edges to retest   : 25168
    Number of intersected edges : 202181

Undo iteration 0
----------------
Checking faces in error :
    non-orthogonality > 70  degrees                        : 40
    faces with face pyramid volume < 1e-30                 : 0
    faces with concavity > 80  degrees                     : 0
    faces with skewness > 4   (internal) or 20  (boundary) : 0
    faces with interpolation weights (0..1)  < 0.005       : 1
    faces with volume ratio of neighbour cells < 0.001     : 0
    faces with face twist < 0.001                          : 141
    faces on cells with determinant < 0.0001                : 17
Detected 6 error faces on boundaries that have been merged. These will be restored to their original faces.

Edge intersection testing:
    Number of edges             : 6326371
    Number of edges to retest   : 27
    Number of intersected edges : 202181

Undo iteration 1
----------------
Checking faces in error :
    non-orthogonality > 70  degrees                        : 40
    faces with face pyramid volume < 1e-30                 : 0
    faces with concavity > 80  degrees                     : 0
    faces with skewness > 4   (internal) or 20  (boundary) : 0
    faces with interpolation weights (0..1)  < 0.005       : 1
    faces with volume ratio of neighbour cells < 0.001     : 0
    faces with face twist < 0.001                          : 136
    faces on cells with determinant < 0.0001                : 17
Detected 0 error faces on boundaries that have been merged. These will be restored to their original faces.

Detected 194 error faces in mesh. Restoring neighbours of faces in error.

Edge intersection testing:
    Number of edges             : 6326371
    Number of edges to retest   : 8222
    Number of intersected edges : 202320

Checking mesh manifoldness ...
Outside of mesh is multiply connected across edges or points.
This is not a fatal error but might cause some unexpected behaviour.


Checking initial mesh ...
Checking faces in error :
    non-orthogonality > 70  degrees                        : 40
    faces with face pyramid volume < 1e-30                 : 0
    faces with concavity > 80  degrees                     : 0
    faces with skewness > 4   (internal) or 20  (boundary) : 0
    faces with interpolation weights (0..1)  < 0.005       : 1
    faces with volume ratio of neighbour cells < 0.001     : 0
    faces with face twist < 0.001                          : 134
    faces on cells with determinant < 0.0001                : 17
Detected 192 illegal faces (concave, zero area or negative cell pyramid volume)

Adding in total 0 inter-processor patches to handle extrusion of non-manifold processor boundaries.

Handling points with inconsistent layer specification ...

Handling non-manifold points ...

Checking patch manifoldness ...
Outside of local patch is multiply connected across edges or points at 0 points.
Set displacement to zero for all 0 non-manifold points

Handling feature edges ...

Handling cells with warped patch faces ...
Set displacement to zero on 5 warped faces since layer would be > 0.9 of the size of the bounding box.

Growing non-extrusion points by one layer ...
Set displacement to zero for an additional 49 points.

patch        faces    layers avg thickness[m]
                             near-wall overall
-----        -----    ------ --------- -------
room_SIDE2   9999     5      0.00357   0.024   
room_FLOOR   7831     5      0.00238   0.0161  
room_CEILING 4896     5      0.00357   0.024   
room_BACK    18282    5      0.00185   0.0125  
room_SIDE1   9999     5      0.00357   0.024   
room_OUTLET2 316      5      0.00185   0.0125  
room_OUTLET1 314      5      0.00185   0.0125  

Selecting externalDisplacementMeshMover displacementMedialAxis
displacementMedialAxis : Calculating distance to Medial Axis ...
displacementMedialAxis : Smoothing normals ...
    Iteration 0   residual 0.0112753346
    Iteration 10   residual 0.00470013781
    Iteration 20   residual 0.00335765266
    Iteration 30   residual 0.00269013551
    Iteration 40   residual 0.00227577745
    Iteration 50   residual 0.00199054431
    Iteration 60   residual 0.00178113017
    Iteration 70   residual 0.00162016731
    Iteration 80   residual 0.00149209957
    Iteration 90   residual 0.00138741214
displacementMedialAxis : Inserting points on patch room_INLET if angle to nearest layer patch > 75 degrees.
displacementMedialAxis : Inserting all points on patch manikin
displacementMedialAxis : Smoothing normals in interior ...
    Iteration 0   residual 0.00609171925
    Iteration 10   residual 0.00337464158
    Iteration 20   residual 0.0030072118
    Iteration 30   residual 0.00280236246
    Iteration 40   residual 0.00260670031
    Iteration 50   residual 0.00240515288
    Iteration 60   residual 0.00222038196
    Iteration 70   residual 0.0020343049
    Iteration 80   residual 0.00186678844
    Iteration 90   residual 0.0017180665

Layer addition iteration 0
--------------------------

Determining displacement for added points according to pointNormal ...
Detected 0 points with point normal pointing through faces.
Reset displacement at 0 points to average of surrounding points.

displacementMedialAxis : Smoothing using Medial Axis ...
displacementMedialAxis : Reducing layer thickness at 2 nodes where thickness to medial axis distance is large 
displacementMedialAxis : Removing isolated regions ...
displacementMedialAxis : Number of isolated points extrusion stopped : 8
displacementMedialAxis : Smoothing field ...
    Iteration 0   residual 1.21066579e-05
displacementMedialAxis : Moving mesh ...
displacementMedialAxis : Iteration 0
Moving mesh using displacement scaling : min:1  max:1
Checking faces in error :
    non-orthogonality > 70  degrees                        : 57
    faces with face pyramid volume < 1e-30                 : 3
    faces with concavity > 80  degrees                     : 3
    faces with skewness > 4   (internal) or 20  (boundary) : 0
    faces with interpolation weights (0..1)  < 0.005       : 0
    faces with volume ratio of neighbour cells < 0.001     : 0
    faces with face twist < 0.001                          : 143
    faces on cells with determinant < 0.0001                : 23
displacementMedialAxis : Iteration 1
Moving mesh using displacement scaling : min:0.75  max:1
Checking faces in error :
    non-orthogonality > 70  degrees                        : 56
    faces with face pyramid volume < 1e-30                 : 3
    faces with concavity > 80  degrees                     : 2
    faces with skewness > 4   (internal) or 20  (boundary) : 0
    faces with interpolation weights (0..1)  < 0.005       : 0
    faces with volume ratio of neighbour cells < 0.001     : 0
    faces with face twist < 0.001                          : 144
    faces on cells with determinant < 0.0001                : 20
displacementMedialAxis : Iteration 2
Moving mesh using displacement scaling : min:0.5625  max:1
Checking faces in error :
    non-orthogonality > 70  degrees                        : 48
    faces with face pyramid volume < 1e-30                 : 2
    faces with concavity > 80  degrees                     : 2
    faces with skewness > 4   (internal) or 20  (boundary) : 0
    faces with interpolation weights (0..1)  < 0.005       : 0
    faces with volume ratio of neighbour cells < 0.001     : 0
    faces with face twist < 0.001                          : 144
    faces on cells with determinant < 0.0001                : 20
displacementMedialAxis : Iteration 3
Moving mesh using displacement scaling : min:0.421875  max:1
Checking faces in error :
    non-orthogonality > 70  degrees                        : 49
    faces with face pyramid volume < 1e-30                 : 2
    faces with concavity > 80  degrees                     : 1
    faces with skewness > 4   (internal) or 20  (boundary) : 0
    faces with interpolation weights (0..1)  < 0.005       : 0
    faces with volume ratio of neighbour cells < 0.001     : 0
    faces with face twist < 0.001                          : 141
    faces on cells with determinant < 0.0001                : 17
displacementMedialAxis : Iteration 4
Moving mesh using displacement scaling : min:0.31640625  max:1
Checking faces in error :
    non-orthogonality > 70  degrees                        : 47
    faces with face pyramid volume < 1e-30                 : 1
    faces with concavity > 80  degrees                     : 1
    faces with skewness > 4   (internal) or 20  (boundary) : 0
    faces with interpolation weights (0..1)  < 0.005       : 0
    faces with volume ratio of neighbour cells < 0.001     : 0
    faces with face twist < 0.001                          : 138
    faces on cells with determinant < 0.0001                : 17
displacementMedialAxis : Iteration 5
Moving mesh using displacement scaling : min:0.237304688  max:1
Checking faces in error :
    non-orthogonality > 70  degrees                        : 45
    faces with face pyramid volume < 1e-30                 : 1
    faces with concavity > 80  degrees                     : 1
    faces with skewness > 4   (internal) or 20  (boundary) : 0
    faces with interpolation weights (0..1)  < 0.005       : 1
    faces with volume ratio of neighbour cells < 0.001     : 0
    faces with face twist < 0.001                          : 138
    faces on cells with determinant < 0.0001                : 17
displacementMedialAxis : Iteration 6
Moving mesh using displacement scaling : min:0.177978516  max:1
Checking faces in error :
    non-orthogonality > 70  degrees                        : 45
    faces with face pyramid volume < 1e-30                 : 1
    faces with concavity > 80  degrees                     : 1
    faces with skewness > 4   (internal) or 20  (boundary) : 0
    faces with interpolation weights (0..1)  < 0.005       : 0
    faces with volume ratio of neighbour cells < 0.001     : 0
    faces with face twist < 0.001                          : 138
    faces on cells with determinant < 0.0001                : 17
displacementMedialAxis : Iteration 7
Moving mesh using displacement scaling : min:0.133483887  max:1
Checking faces in error :
    non-orthogonality > 70  degrees                        : 41
    faces with face pyramid volume < 1e-30                 : 1
    faces with concavity > 80  degrees                     : 1
    faces with skewness > 4   (internal) or 20  (boundary) : 0
    faces with interpolation weights (0..1)  < 0.005       : 0
    faces with volume ratio of neighbour cells < 0.001     : 0
    faces with face twist < 0.001                          : 137
    faces on cells with determinant < 0.0001                : 17
displacementMedialAxis : Iteration 8
Moving mesh using displacement scaling : min:0.100112915  max:1
Checking faces in error :
    non-orthogonality > 70  degrees                        : 39
    faces with face pyramid volume < 1e-30                 : 1
    faces with concavity > 80  degrees                     : 0
    faces with skewness > 4   (internal) or 20  (boundary) : 0
    faces with interpolation weights (0..1)  < 0.005       : 1
    faces with volume ratio of neighbour cells < 0.001     : 0
    faces with face twist < 0.001                          : 137
    faces on cells with determinant < 0.0001                : 17
displacementMedialAxis : Iteration 9
Moving mesh using displacement scaling : min:0.0750846863  max:1
Checking faces in error :
    non-orthogonality > 70  degrees                        : 39
    faces with face pyramid volume < 1e-30                 : 1
    faces with concavity > 80  degrees                     : 0
    faces with skewness > 4   (internal) or 20  (boundary) : 0
    faces with interpolation weights (0..1)  < 0.005       : 0
    faces with volume ratio of neighbour cells < 0.001     : 0
    faces with face twist < 0.001                          : 139
    faces on cells with determinant < 0.0001                : 17
displacementMedialAxis : Iteration 10
Moving mesh using displacement scaling : min:0.0563135147  max:1
Checking faces in error :
    non-orthogonality > 70  degrees                        : 38
    faces with face pyramid volume < 1e-30                 : 1
    faces with concavity > 80  degrees                     : 0
    faces with skewness > 4   (internal) or 20  (boundary) : 0
    faces with interpolation weights (0..1)  < 0.005       : 0
    faces with volume ratio of neighbour cells < 0.001     : 0
    faces with face twist < 0.001                          : 137
    faces on cells with determinant < 0.0001                : 17
displacementMedialAxis : Iteration 11
Moving mesh using displacement scaling : min:0.042235136  max:1
Checking faces in error :
    non-orthogonality > 70  degrees                        : 38
    faces with face pyramid volume < 1e-30                 : 1
    faces with concavity > 80  degrees                     : 0
    faces with skewness > 4   (internal) or 20  (boundary) : 0
    faces with interpolation weights (0..1)  < 0.005       : 0
    faces with volume ratio of neighbour cells < 0.001     : 0
    faces with face twist < 0.001                          : 137
    faces on cells with determinant < 0.0001                : 17
displacementMedialAxis : Iteration 12
Moving mesh using displacement scaling : min:0.031676352  max:1
Checking faces in error :
    non-orthogonality > 70  degrees                        : 38
    faces with face pyramid volume < 1e-30                 : 1
    faces with concavity > 80  degrees                     : 0
    faces with skewness > 4   (internal) or 20  (boundary) : 0
    faces with interpolation weights (0..1)  < 0.005       : 1
    faces with volume ratio of neighbour cells < 0.001     : 0
    faces with face twist < 0.001                          : 137
    faces on cells with determinant < 0.0001                : 17
displacementMedialAxis : Iteration 13
Moving mesh using displacement scaling : min:0.023757264  max:1
Checking faces in error :
    non-orthogonality > 70  degrees                        : 38
    faces with face pyramid volume < 1e-30                 : 1
    faces with concavity > 80  degrees                     : 0
    faces with skewness > 4   (internal) or 20  (boundary) : 0
    faces with interpolation weights (0..1)  < 0.005       : 0
    faces with volume ratio of neighbour cells < 0.001     : 0
    faces with face twist < 0.001                          : 138
    faces on cells with determinant < 0.0001                : 17
displacementMedialAxis : Iteration 14
Moving mesh using displacement scaling : min:0.017817948  max:1
Checking faces in error :
    non-orthogonality > 70  degrees                        : 38
    faces with face pyramid volume < 1e-30                 : 1
    faces with concavity > 80  degrees                     : 0
    faces with skewness > 4   (internal) or 20  (boundary) : 0
    faces with interpolation weights (0..1)  < 0.005       : 0
    faces with volume ratio of neighbour cells < 0.001     : 0
    faces with face twist < 0.001                          : 139
    faces on cells with determinant < 0.0001                : 17
displacementMedialAxis : Iteration 15
Moving mesh using displacement scaling : min:0.013363461  max:1
Checking faces in error :
    non-orthogonality > 70  degrees                        : 38
    faces with face pyramid volume < 1e-30                 : 0
    faces with concavity > 80  degrees                     : 0
    faces with skewness > 4   (internal) or 20  (boundary) : 0
    faces with interpolation weights (0..1)  < 0.005       : 0
    faces with volume ratio of neighbour cells < 0.001     : 0
    faces with face twist < 0.001                          : 137
    faces on cells with determinant < 0.0001                : 17
displacementMedialAxis : Successfully moved mesh
displacementMedialAxis : Finished moving mesh ...
truncateDisplacement : Unextruded 0 faces due to non-consecutive vertices being extruded.
truncateDisplacement : Unextruded 1 faces due to stringed edges with inconsistent extrusion.
truncateDisplacement : Unextruded 0 faces due to non-consecutive vertices being extruded.
truncateDisplacement : Unextruded 0 faces due to stringed edges with inconsistent extrusion.

Setting up information for layer truncation ...

Checking mesh with layer ...
Checking faces in error :
    non-orthogonality > 70  degrees                        : 53
    faces with face pyramid volume < 1e-30                 : 3
    faces with concavity > 80  degrees                     : 0
    faces with skewness > 4   (internal) or 20  (boundary) : 0
    faces with interpolation weights (0..1)  < 0.005       : 1
    faces with volume ratio of neighbour cells < 0.001     : 0
    faces with face twist < 0.001                          : 160
    faces on cells with determinant < 0.0001                : 17
Detected 234 illegal faces (concave, zero area or negative cell pyramid volume)
[0] Checked mesh with layers. Disabled extrusion at 
[0]     (0.151895462 0.788878788 0.00240430943)
[0]     (0.151995356 0.784312511 0.00227430456)
Suppressed disabled extrusion message for other 25 faces.
Extruding 51550 out of 51637 faces (99.8315162%). Removed extrusion at 27 faces.
Added 256233 out of 258185 cells (99.243953%).

Growing non-extrusion points by one layer ...
Set displacement to zero for an additional 198 points.


Layer addition iteration 1
--------------------------

Determining displacement for added points according to pointNormal ...
Detected 0 points with point normal pointing through faces.
Reset displacement at 0 points to average of surrounding points.

displacementMedialAxis : Smoothing using Medial Axis ...
displacementMedialAxis : Reducing layer thickness at 0 nodes where thickness to medial axis distance is large 
displacementMedialAxis : Removing isolated regions ...
displacementMedialAxis : Number of isolated points extrusion stopped : 2
displacementMedialAxis : Smoothing field ...
    Iteration 0   residual 1.29956248e-05
displacementMedialAxis : Moving mesh ...
displacementMedialAxis : Iteration 0
Moving mesh using displacement scaling : min:1  max:1
Checking faces in error :
    non-orthogonality > 70  degrees                        : 49
    faces with face pyramid volume < 1e-30                 : 1
    faces with concavity > 80  degrees                     : 3
    faces with skewness > 4   (internal) or 20  (boundary) : 0
    faces with interpolation weights (0..1)  < 0.005       : 0
    faces with volume ratio of neighbour cells < 0.001     : 0
    faces with face twist < 0.001                          : 144
    faces on cells with determinant < 0.0001                : 20
displacementMedialAxis : Iteration 1
Moving mesh using displacement scaling : min:0.75  max:1
Checking faces in error :
    non-orthogonality > 70  degrees                        : 50
    faces with face pyramid volume < 1e-30                 : 1
    faces with concavity > 80  degrees                     : 2
    faces with skewness > 4   (internal) or 20  (boundary) : 0
    faces with interpolation weights (0..1)  < 0.005       : 0
    faces with volume ratio of neighbour cells < 0.001     : 0
    faces with face twist < 0.001                          : 146
    faces on cells with determinant < 0.0001                : 20
displacementMedialAxis : Iteration 2
Moving mesh using displacement scaling : min:0.5625  max:1
Checking faces in error :
    non-orthogonality > 70  degrees                        : 46
    faces with face pyramid volume < 1e-30                 : 1
    faces with concavity > 80  degrees                     : 2
    faces with skewness > 4   (internal) or 20  (boundary) : 0
    faces with interpolation weights (0..1)  < 0.005       : 0
    faces with volume ratio of neighbour cells < 0.001     : 0
    faces with face twist < 0.001                          : 144
    faces on cells with determinant < 0.0001                : 20
displacementMedialAxis : Iteration 3
Moving mesh using displacement scaling : min:0.421875  max:1
Checking faces in error :
    non-orthogonality > 70  degrees                        : 45
    faces with face pyramid volume < 1e-30                 : 1
    faces with concavity > 80  degrees                     : 1
    faces with skewness > 4   (internal) or 20  (boundary) : 0
    faces with interpolation weights (0..1)  < 0.005       : 0
    faces with volume ratio of neighbour cells < 0.001     : 0
    faces with face twist < 0.001                          : 143
    faces on cells with determinant < 0.0001                : 17
displacementMedialAxis : Iteration 4
Moving mesh using displacement scaling : min:0.31640625  max:1
Checking faces in error :
    non-orthogonality > 70  degrees                        : 45
    faces with face pyramid volume < 1e-30                 : 0
    faces with concavity > 80  degrees                     : 1
    faces with skewness > 4   (internal) or 20  (boundary) : 0
    faces with interpolation weights (0..1)  < 0.005       : 0
    faces with volume ratio of neighbour cells < 0.001     : 0
    faces with face twist < 0.001                          : 140
    faces on cells with determinant < 0.0001                : 17
displacementMedialAxis : Iteration 5
Moving mesh using displacement scaling : min:0.237304688  max:1
Checking faces in error :
    non-orthogonality > 70  degrees                        : 43
    faces with face pyramid volume < 1e-30                 : 0
    faces with concavity > 80  degrees                     : 1
    faces with skewness > 4   (internal) or 20  (boundary) : 0
    faces with interpolation weights (0..1)  < 0.005       : 1
    faces with volume ratio of neighbour cells < 0.001     : 0
    faces with face twist < 0.001                          : 142
    faces on cells with determinant < 0.0001                : 17
displacementMedialAxis : Iteration 6
Moving mesh using displacement scaling : min:0.177978516  max:1
Checking faces in error :
    non-orthogonality > 70  degrees                        : 42
    faces with face pyramid volume < 1e-30                 : 0
    faces with concavity > 80  degrees                     : 1
    faces with skewness > 4   (internal) or 20  (boundary) : 0
    faces with interpolation weights (0..1)  < 0.005       : 0
    faces with volume ratio of neighbour cells < 0.001     : 0
    faces with face twist < 0.001                          : 141
    faces on cells with determinant < 0.0001                : 17
displacementMedialAxis : Iteration 7
Moving mesh using displacement scaling : min:0.133483887  max:1
Checking faces in error :
    non-orthogonality > 70  degrees                        : 38
    faces with face pyramid volume < 1e-30                 : 0
    faces with concavity > 80  degrees                     : 1
    faces with skewness > 4   (internal) or 20  (boundary) : 0
    faces with interpolation weights (0..1)  < 0.005       : 0
    faces with volume ratio of neighbour cells < 0.001     : 0
    faces with face twist < 0.001                          : 140
    faces on cells with determinant < 0.0001                : 17
displacementMedialAxis : Iteration 8
Moving mesh using displacement scaling : min:0.100112915  max:1
Checking faces in error :
    non-orthogonality > 70  degrees                        : 38
    faces with face pyramid volume < 1e-30                 : 0
    faces with concavity > 80  degrees                     : 0
    faces with skewness > 4   (internal) or 20  (boundary) : 0
    faces with interpolation weights (0..1)  < 0.005       : 1
    faces with volume ratio of neighbour cells < 0.001     : 0
    faces with face twist < 0.001                          : 140
    faces on cells with determinant < 0.0001                : 17
displacementMedialAxis : Iteration 9
Moving mesh using displacement scaling : min:0.0750846863  max:1
Checking faces in error :
    non-orthogonality > 70  degrees                        : 39
    faces with face pyramid volume < 1e-30                 : 0
    faces with concavity > 80  degrees                     : 0
    faces with skewness > 4   (internal) or 20  (boundary) : 0
    faces with interpolation weights (0..1)  < 0.005       : 0
    faces with volume ratio of neighbour cells < 0.001     : 0
    faces with face twist < 0.001                          : 142
    faces on cells with determinant < 0.0001                : 17
displacementMedialAxis : Iteration 10
Moving mesh using displacement scaling : min:0.0563135147  max:1
Checking faces in error :
    non-orthogonality > 70  degrees                        : 38
    faces with face pyramid volume < 1e-30                 : 0
    faces with concavity > 80  degrees                     : 0
    faces with skewness > 4   (internal) or 20  (boundary) : 0
    faces with interpolation weights (0..1)  < 0.005       : 0
    faces with volume ratio of neighbour cells < 0.001     : 0
    faces with face twist < 0.001                          : 139
    faces on cells with determinant < 0.0001                : 17
displacementMedialAxis : Iteration 11
Moving mesh using displacement scaling : min:0.042235136  max:1
Checking faces in error :
    non-orthogonality > 70  degrees                        : 38
    faces with face pyramid volume < 1e-30                 : 0
    faces with concavity > 80  degrees                     : 0
    faces with skewness > 4   (internal) or 20  (boundary) : 0
    faces with interpolation weights (0..1)  < 0.005       : 0
    faces with volume ratio of neighbour cells < 0.001     : 0
    faces with face twist < 0.001                          : 140
    faces on cells with determinant < 0.0001                : 17
displacementMedialAxis : Iteration 12
Moving mesh using displacement scaling : min:0.031676352  max:1
Checking faces in error :
    non-orthogonality > 70  degrees                        : 38
    faces with face pyramid volume < 1e-30                 : 0
    faces with concavity > 80  degrees                     : 0
    faces with skewness > 4   (internal) or 20  (boundary) : 0
    faces with interpolation weights (0..1)  < 0.005       : 1
    faces with volume ratio of neighbour cells < 0.001     : 0
    faces with face twist < 0.001                          : 139
    faces on cells with determinant < 0.0001                : 17
displacementMedialAxis : Iteration 13
Moving mesh using displacement scaling : min:0.023757264  max:1
Checking faces in error :
    non-orthogonality > 70  degrees                        : 38
    faces with face pyramid volume < 1e-30                 : 0
    faces with concavity > 80  degrees                     : 0
    faces with skewness > 4   (internal) or 20  (boundary) : 0
    faces with interpolation weights (0..1)  < 0.005       : 0
    faces with volume ratio of neighbour cells < 0.001     : 0
    faces with face twist < 0.001                          : 140
    faces on cells with determinant < 0.0001                : 17
displacementMedialAxis : Iteration 14
Moving mesh using displacement scaling : min:0.017817948  max:1
Checking faces in error :
    non-orthogonality > 70  degrees                        : 38
    faces with face pyramid volume < 1e-30                 : 0
    faces with concavity > 80  degrees                     : 0
    faces with skewness > 4   (internal) or 20  (boundary) : 0
    faces with interpolation weights (0..1)  < 0.005       : 0
    faces with volume ratio of neighbour cells < 0.001     : 0
    faces with face twist < 0.001                          : 140
    faces on cells with determinant < 0.0001                : 17
displacementMedialAxis : Iteration 15
Moving mesh using displacement scaling : min:0.013363461  max:1
Checking faces in error :
    non-orthogonality > 70  degrees                        : 38
    faces with face pyramid volume < 1e-30                 : 0
    faces with concavity > 80  degrees                     : 0
    faces with skewness > 4   (internal) or 20  (boundary) : 0
    faces with interpolation weights (0..1)  < 0.005       : 0
    faces with volume ratio of neighbour cells < 0.001     : 0
    faces with face twist < 0.001                          : 139
    faces on cells with determinant < 0.0001                : 17
displacementMedialAxis : Iteration 16
Moving mesh using displacement scaling : min:0.0100225958  max:1
Checking faces in error :
    non-orthogonality > 70  degrees                        : 38
    faces with face pyramid volume < 1e-30                 : 0
    faces with concavity > 80  degrees                     : 0
    faces with skewness > 4   (internal) or 20  (boundary) : 0
    faces with interpolation weights (0..1)  < 0.005       : 0
    faces with volume ratio of neighbour cells < 0.001     : 0
    faces with face twist < 0.001                          : 139
    faces on cells with determinant < 0.0001                : 17
displacementMedialAxis : Iteration 17
Moving mesh using displacement scaling : min:0.00751694682  max:1
Checking faces in error :
    non-orthogonality > 70  degrees                        : 38
    faces with face pyramid volume < 1e-30                 : 0
    faces with concavity > 80  degrees                     : 0
    faces with skewness > 4   (internal) or 20  (boundary) : 0
    faces with interpolation weights (0..1)  < 0.005       : 0
    faces with volume ratio of neighbour cells < 0.001     : 0
    faces with face twist < 0.001                          : 139
    faces on cells with determinant < 0.0001                : 17
displacementMedialAxis : Iteration 18
Moving mesh using displacement scaling : min:0.00563771011  max:1
Checking faces in error :
    non-orthogonality > 70  degrees                        : 38
    faces with face pyramid volume < 1e-30                 : 0
    faces with concavity > 80  degrees                     : 0
    faces with skewness > 4   (internal) or 20  (boundary) : 0
    faces with interpolation weights (0..1)  < 0.005       : 0
    faces with volume ratio of neighbour cells < 0.001     : 0
    faces with face twist < 0.001                          : 139
    faces on cells with determinant < 0.0001                : 17
displacementMedialAxis : Iteration 19
Moving mesh using displacement scaling : min:0.00422828259  max:1
Checking faces in error :
    non-orthogonality > 70  degrees                        : 38
    faces with face pyramid volume < 1e-30                 : 0
    faces with concavity > 80  degrees                     : 0
    faces with skewness > 4   (internal) or 20  (boundary) : 0
    faces with interpolation weights (0..1)  < 0.005       : 1
    faces with volume ratio of neighbour cells < 0.001     : 0
    faces with face twist < 0.001                          : 139
    faces on cells with determinant < 0.0001                : 17
displacementMedialAxis : Iteration 20
displacementMedialAxis : Displacement scaling for error reduction set to 0.
Moving mesh using displacement scaling : min:0.00317121194  max:1
Checking faces in error :
    non-orthogonality > 70  degrees                        : 38
    faces with face pyramid volume < 1e-30                 : 0
    faces with concavity > 80  degrees                     : 0
    faces with skewness > 4   (internal) or 20  (boundary) : 0
    faces with interpolation weights (0..1)  < 0.005       : 0
    faces with volume ratio of neighbour cells < 0.001     : 0
    faces with face twist < 0.001                          : 139
    faces on cells with determinant < 0.0001                : 17
displacementMedialAxis : Iteration 21
Moving mesh using displacement scaling : min:0  max:1
Checking faces in error :
    non-orthogonality > 70  degrees                        : 36
    faces with face pyramid volume < 1e-30                 : 0
    faces with concavity > 80  degrees                     : 0
    faces with skewness > 4   (internal) or 20  (boundary) : 0
    faces with interpolation weights (0..1)  < 0.005       : 1
    faces with volume ratio of neighbour cells < 0.001     : 0
    faces with face twist < 0.001                          : 137
    faces on cells with determinant < 0.0001                : 17
displacementMedialAxis : Successfully moved mesh
displacementMedialAxis : Finished moving mesh ...
truncateDisplacement : Unextruded 0 faces due to non-consecutive vertices being extruded.
truncateDisplacement : Unextruded 0 faces due to stringed edges with inconsistent extrusion.

Setting up information for layer truncation ...

Checking mesh with layer ...
Checking faces in error :
    non-orthogonality > 70  degrees                        : 36
    faces with face pyramid volume < 1e-30                 : 0
    faces with concavity > 80  degrees                     : 0
    faces with skewness > 4   (internal) or 20  (boundary) : 0
    faces with interpolation weights (0..1)  < 0.005       : 1
    faces with volume ratio of neighbour cells < 0.001     : 0
    faces with face twist < 0.001                          : 137
    faces on cells with determinant < 0.0001                : 17
Detected 191 illegal faces (concave, zero area or negative cell pyramid volume)
Extruding 51371 out of 51637 faces (99.4848655%). Removed extrusion at 0 faces.
Added 254687 out of 258185 cells (98.6451575%).
Edge intersection testing:
    Number of edges             : 7093323
    Number of edges to retest   : 0
    Number of intersected edges : 456903

Doing final balancing
---------------------


patch        faces    layers   overall thickness
                               [m]       [%]
-----        -----    ------   ---       ---
room_SIDE2   9999     5        0.0241    99.6    
room_FLOOR   7831     4.61     0.0159    91.9    
room_CEILING 4896     5        0.0241    99.6    
room_BACK    18282    4.99     0.0125    99.8    
room_SIDE1   9999     5        0.0241    99.6    
room_OUTLET2 316      5        0.0125    100     
room_OUTLET1 314      4.36     0.0115    92      

Layer mesh : cells:2222300  faces:7093323  points:2683956
Cells per refinement level:
    0	45560
    1	214116
    2	199560
    3	153609
    4	1354076
    5	255379
Writing mesh to time constant
Wrote mesh in = 115.42 s.
Layers added in = 115.42 s.
Checking final mesh ...
Checking faces in error :
    non-orthogonality > 70  degrees                        : 36
    faces with face pyramid volume < 1e-30                 : 0
    faces with concavity > 80  degrees                     : 0
    faces with skewness > 4   (internal) or 20  (boundary) : 0
    faces with interpolation weights (0..1)  < 0.005       : 1
    faces with volume ratio of neighbour cells < 0.001     : 0
    faces with face twist < 0.001                          : 138
    faces on cells with determinant < 0.0001                : 17
Finished meshing with 192 illegal faces (concave, zero area or negative cell pyramid volume)
Finished meshing in = 124.78 s.
End

Finalising parallel run
