/*---------------------------------------------------------------------------*\
| =========                 |                                                 |
| \\      /  F ield         | OpenFOAM: The Open Source CFD Toolbox           |
|  \\    /   O peration     | Version:  2.3.1                                 |
|   \\  /    A nd           | Web:      www.OpenFOAM.org                      |
|    \\/     M anipulation  |                                                 |
\*---------------------------------------------------------------------------*/
Build  : 2.3.1-bcfaaa7b8660
Exec   : snappyHexMesh -parallel
Date   : May 17 2017
Time   : 13:43:51
Host   : "ubuntu"
PID    : 3388
Case   : /home/cong/Desktop/AIVC/Case5
nProcs : 4
Slaves : 
3
(
"ubuntu.3389"
"ubuntu.3390"
"ubuntu.3391"
)

Pstream initialized with:
    floatTransfer      : 0
    nProcsSimpleSum    : 0
    commsType          : nonBlocking
    polling iterations : 0
sigFpe : Enabling floating point exception trapping (FOAM_SIGFPE).
fileModificationChecking : Monitoring run-time modified files using timeStampMaster
allowSystemOperations : Allowing user-supplied system call operations

// * * * * * * * * * * * * * * * * * * * * * * * * * * * * * * * * * * * * * //
Create time

Create mesh for time = 1

Read mesh in = 0.98 s

Overall mesh bounding box  : (-0.600000143 -1.43600005e-07 -0.000361970677) (0.600000024 2.44000006 2.46000004)
Relative tolerance         : 1e-12
Absolute matching distance : 3.66701276e-12

Reading refinement surfaces.
Read refinement surfaces in = 1.38 s

Reading refinement shells.
Refinement level according to distance to room.stl
    level 1 for all cells within 0.06 metre.
Refinement level according to distance to manikin.stl
    level 4 for all cells within 0.012 metre.
    level 3 for all cells within 0.03 metre.
    level 2 for all cells within 0.06 metre.
    level 1 for all cells within 0.12 metre.
Read refinement shells in = 0 s

Setting refinement level of surface to be consistent with shells.
Checked shell refinement in = 1.03 s

Reading features.
Read edgeMesh room.eMesh
    points      : 310
    edges       : 336
    boundingBox : (-0.600000143 -1.43600005e-07 -5.12999989e-08) (0.600000024 2.44000006 2.46000004)

Refinement level according to distance to "room.eMesh" (310 points, 336 edges).
    level 1 for all cells within 0 metre.
Read edgeMesh manikin.eMesh
    points      : 0
    edges       : 0
    boundingBox : (1e+300 1e+300 1e+300) (-1e+300 -1e+300 -1e+300)

Refinement level according to distance to "manikin.eMesh" (0 points, 0 edges).
    level 5 for all cells within 0 metre.
--> FOAM Warning : 
    From function treeBoundBox::treeBoundBox(const UList<point>&)
    in file meshes/treeBoundBox/treeBoundBox.C at line 136
    cannot find bounding box for zero-sized pointField, returning zero
Read features in = 0.07 s


Determining initial surface intersections
-----------------------------------------

Edge intersection testing:
    Number of edges             : 6959466
    Number of edges to retest   : 6959466
    Number of intersected edges : 203414
Calculated surface intersections in = 4.95 s

Initial mesh : cells:2165952  faces:6959466  points:2665060
Cells per refinement level:
    0	44660
    1	82081
    2	94720
    3	149303
    4	1484757
    5	310431

Adding patches for surface regions
----------------------------------

Patch Type                Region                        
----- ----                ------                        
room:

1     wall                room_SIDE2                    
2     wall                room_FLOOR                    
3     wall                room_CEILING                  
4     wall                room_BACK                     
5     wall                room_SIDE1                    
6     patch               room_INLET                    
7     patch               room_OUTLET2                  
8     patch               room_OUTLET1                  

manikin:

9     wall                manikin                       

Added patches in = 0.01 s

Selecting decompositionMethod ptscotch
Layer thickness specified as first layer and expansion ratio.

Shrinking and layer addition phase
----------------------------------

Using mesh parameters 
{
    maxNonOrtho     70;
    maxBoundarySkewness 20;
    maxInternalSkewness 4;
    maxConcave      80;
    minVol          1e-30;
    minTetQuality   -1e+30;
    minVolCollapseRatio -1;
    minArea         -1;
    minTwist        0.001;
    minDeterminant  0.0001;
    minFaceWeight   0.005;
    minVolRatio     0.001;
    minTriangleTwist -1;
    nSmoothScale    4;
    errorReduction  0.75;
    relaxed
    {
        maxNonOrtho     75;
        maxBoundarySkewness 20;
        maxInternalSkewness 5;
        maxConcave      80;
        minVol          1e-60;
        minTetQuality   -1e+30;
        minArea         -1;
        minTwist        -2;
        minDeterminant  0;
        minFaceWeight   0;
        minVolRatio     0;
    }
}



Merging all faces of a cell
---------------------------
    - which are on the same patch
    - which make an angle < 180 degrees
      (cos:-1)
    - as long as the resulting face doesn't become concave by more than 90 degrees
      (0=straight, 180=fully concave)

Merging 43 sets of faces.

Edge intersection testing:
    Number of edges             : 6959415
    Number of edges to retest   : 212
    Number of intersected edges : 203377

Undo iteration 0
----------------
Checking faces in error :
    non-orthogonality > 70  degrees                        : 130
    faces with face pyramid volume < 1e-30                 : 0
    faces with concavity > 80  degrees                     : 38
    faces with skewness > 4   (internal) or 20  (boundary) : 0
    faces with interpolation weights (0..1)  < 0.005       : 5
    faces with volume ratio of neighbour cells < 0.001     : 0
    faces with face twist < 0.001                          : 140
    faces on cells with determinant < 0.0001                : 33
Masters that need to be restored:43
Edge intersection testing:
    Number of edges             : 6959466
    Number of edges to retest   : 263
    Number of intersected edges : 203428


Undo iteration 1
----------------
Checking faces in error :
    non-orthogonality > 70  degrees                        : 125
    faces with face pyramid volume < 1e-30                 : 0
    faces with concavity > 80  degrees                     : 0
    faces with skewness > 4   (internal) or 20  (boundary) : 0
    faces with interpolation weights (0..1)  < 0.005       : 5
    faces with volume ratio of neighbour cells < 0.001     : 0
    faces with face twist < 0.001                          : 140
    faces on cells with determinant < 0.0001                : 33
Masters that need to be restored:0

Merging all points on surface that
- are used by only two boundary faces and
- make an angle with a cosine of more than -1.

Removing 2684 straight edge points ...

Edge intersection testing:
    Number of edges             : 6959466
    Number of edges to retest   : 29817
    Number of intersected edges : 203646

Undo iteration 0
----------------
Checking faces in error :
    non-orthogonality > 70  degrees                        : 125
    faces with face pyramid volume < 1e-30                 : 0
    faces with concavity > 80  degrees                     : 0
    faces with skewness > 4   (internal) or 20  (boundary) : 0
    faces with interpolation weights (0..1)  < 0.005       : 5
    faces with volume ratio of neighbour cells < 0.001     : 0
    faces with face twist < 0.001                          : 140
    faces on cells with determinant < 0.0001                : 33
Detected 0 error faces on boundaries that have been merged. These will be restored to their original faces.

Detected 303 error faces in mesh. Restoring neighbours of faces in error.

Edge intersection testing:
    Number of edges             : 6959466
    Number of edges to retest   : 12024
    Number of intersected edges : 203728

Checking mesh manifoldness ...
Outside of mesh is multiply connected across edges or points.
This is not a fatal error but might cause some unexpected behaviour.


Checking initial mesh ...
Checking faces in error :
    non-orthogonality > 70  degrees                        : 125
    faces with face pyramid volume < 1e-30                 : 0
    faces with concavity > 80  degrees                     : 0
    faces with skewness > 4   (internal) or 20  (boundary) : 0
    faces with interpolation weights (0..1)  < 0.005       : 5
    faces with volume ratio of neighbour cells < 0.001     : 0
    faces with face twist < 0.001                          : 140
    faces on cells with determinant < 0.0001                : 33
Detected 303 illegal faces (concave, zero area or negative cell pyramid volume)

Adding in total 0 inter-processor patches to handle extrusion of non-manifold processor boundaries.

Handling points with inconsistent layer specification ...

Handling non-manifold points ...

Checking patch manifoldness ...
Outside of local patch is multiply connected across edges or points at 0 points.
Set displacement to zero for all 0 non-manifold points

Handling feature edges ...

Growing non-extrusion points by one layer ...
Set displacement to zero for an additional 0 points.

patch        faces    layers avg thickness[m]
                             near-wall overall
-----        -----    ------ --------- -------
room_SIDE2   9999     4      0.004     0.0186  
room_FLOOR   7799     4      0.004     0.0186  
room_CEILING 4896     4      0.004     0.0186  
room_BACK    18282    4      0.004     0.0186  
room_SIDE1   9999     4      0.004     0.0186  
room_OUTLET2 316      4      0.004     0.0186  
room_OUTLET1 314      4      0.004     0.0186  

Selecting externalDisplacementMeshMover displacementMedialAxis
displacementMedialAxis : Calculating distance to Medial Axis ...
displacementMedialAxis : Smoothing normals ...
    Iteration 0   residual 0.0110493483
    Iteration 10   residual 0.00472702672
    Iteration 20   residual 0.00338901002
    Iteration 30   residual 0.00271880401
    Iteration 40   residual 0.00230119183
    Iteration 50   residual 0.00201278239
    Iteration 60   residual 0.00180043294
    Iteration 70   residual 0.00163686139
    Iteration 80   residual 0.00150651021
    Iteration 90   residual 0.00139984639
displacementMedialAxis : Inserting points on patch room_INLET if angle to nearest layer patch > 75 degrees.
displacementMedialAxis : Inserting all points on patch manikin
displacementMedialAxis : Smoothing normals in interior ...
    Iteration 0   residual 0.00604435954
    Iteration 10   residual 0.00334129132
    Iteration 20   residual 0.00297177657
    Iteration 30   residual 0.00277905671
    Iteration 40   residual 0.00260953948
    Iteration 50   residual 0.0024196888
    Iteration 60   residual 0.00223708635
    Iteration 70   residual 0.00206430854
    Iteration 80   residual 0.00190266959
    Iteration 90   residual 0.00175030094

Layer addition iteration 0
--------------------------

Determining displacement for added points according to pointNormal ...
Detected 0 points with point normal pointing through faces.
Reset displacement at 0 points to average of surrounding points.

displacementMedialAxis : Smoothing using Medial Axis ...
displacementMedialAxis : Reducing layer thickness at 1791 nodes where thickness to medial axis distance is large 
displacementMedialAxis : Removing isolated regions ...
displacementMedialAxis : Number of isolated points extrusion stopped : 1
displacementMedialAxis : Smoothing field ...
    Iteration 0   residual 1.2707908e-05
displacementMedialAxis : Moving mesh ...
displacementMedialAxis : Iteration 0
Moving mesh using displacement scaling : min:1  max:1
Checking faces in error :
    non-orthogonality > 70  degrees                        : 9441
    faces with face pyramid volume < 1e-30                 : 1203
    faces with concavity > 80  degrees                     : 37
    faces with skewness > 4   (internal) or 20  (boundary) : 1
    faces with interpolation weights (0..1)  < 0.005       : 0
    faces with volume ratio of neighbour cells < 0.001     : 1
    faces with face twist < 0.001                          : 473
    faces on cells with determinant < 0.0001                : 82
displacementMedialAxis : Iteration 1
Moving mesh using displacement scaling : min:0.75  max:1
Checking faces in error :
    non-orthogonality > 70  degrees                        : 4068
    faces with face pyramid volume < 1e-30                 : 592
    faces with concavity > 80  degrees                     : 57
    faces with skewness > 4   (internal) or 20  (boundary) : 0
    faces with interpolation weights (0..1)  < 0.005       : 4
    faces with volume ratio of neighbour cells < 0.001     : 0
    faces with face twist < 0.001                          : 589
    faces on cells with determinant < 0.0001                : 96
displacementMedialAxis : Iteration 2
Moving mesh using displacement scaling : min:0.5625  max:1
Checking faces in error :
    non-orthogonality > 70  degrees                        : 1294
    faces with face pyramid volume < 1e-30                 : 363
    faces with concavity > 80  degrees                     : 47
    faces with skewness > 4   (internal) or 20  (boundary) : 0
    faces with interpolation weights (0..1)  < 0.005       : 7
    faces with volume ratio of neighbour cells < 0.001     : 0
    faces with face twist < 0.001                          : 527
    faces on cells with determinant < 0.0001                : 48
displacementMedialAxis : Iteration 3
Moving mesh using displacement scaling : min:0.421875  max:1
Checking faces in error :
    non-orthogonality > 70  degrees                        : 699
    faces with face pyramid volume < 1e-30                 : 183
    faces with concavity > 80  degrees                     : 30
    faces with skewness > 4   (internal) or 20  (boundary) : 0
    faces with interpolation weights (0..1)  < 0.005       : 1
    faces with volume ratio of neighbour cells < 0.001     : 0
    faces with face twist < 0.001                          : 417
    faces on cells with determinant < 0.0001                : 32
displacementMedialAxis : Iteration 4
Moving mesh using displacement scaling : min:0.31640625  max:1
Checking faces in error :
    non-orthogonality > 70  degrees                        : 504
    faces with face pyramid volume < 1e-30                 : 123
    faces with concavity > 80  degrees                     : 27
    faces with skewness > 4   (internal) or 20  (boundary) : 0
    faces with interpolation weights (0..1)  < 0.005       : 3
    faces with volume ratio of neighbour cells < 0.001     : 0
    faces with face twist < 0.001                          : 293
    faces on cells with determinant < 0.0001                : 30
displacementMedialAxis : Iteration 5
Moving mesh using displacement scaling : min:0.237304687  max:1
Checking faces in error :
    non-orthogonality > 70  degrees                        : 505
    faces with face pyramid volume < 1e-30                 : 200
    faces with concavity > 80  degrees                     : 16
    faces with skewness > 4   (internal) or 20  (boundary) : 0
    faces with interpolation weights (0..1)  < 0.005       : 7
    faces with volume ratio of neighbour cells < 0.001     : 0
    faces with face twist < 0.001                          : 238
    faces on cells with determinant < 0.0001                : 29
displacementMedialAxis : Iteration 6
Moving mesh using displacement scaling : min:0.177978516  max:1
Checking faces in error :
    non-orthogonality > 70  degrees                        : 165
    faces with face pyramid volume < 1e-30                 : 45
    faces with concavity > 80  degrees                     : 0
    faces with skewness > 4   (internal) or 20  (boundary) : 0
    faces with interpolation weights (0..1)  < 0.005       : 3
    faces with volume ratio of neighbour cells < 0.001     : 0
    faces with face twist < 0.001                          : 204
    faces on cells with determinant < 0.0001                : 29
displacementMedialAxis : Iteration 7
Moving mesh using displacement scaling : min:0.133483887  max:1
Checking faces in error :
    non-orthogonality > 70  degrees                        : 150
    faces with face pyramid volume < 1e-30                 : 28
    faces with concavity > 80  degrees                     : 1
    faces with skewness > 4   (internal) or 20  (boundary) : 0
    faces with interpolation weights (0..1)  < 0.005       : 3
    faces with volume ratio of neighbour cells < 0.001     : 0
    faces with face twist < 0.001                          : 186
    faces on cells with determinant < 0.0001                : 29
displacementMedialAxis : Iteration 8
Moving mesh using displacement scaling : min:0.100112915  max:1
Checking faces in error :
    non-orthogonality > 70  degrees                        : 139
    faces with face pyramid volume < 1e-30                 : 24
    faces with concavity > 80  degrees                     : 0
    faces with skewness > 4   (internal) or 20  (boundary) : 0
    faces with interpolation weights (0..1)  < 0.005       : 2
    faces with volume ratio of neighbour cells < 0.001     : 0
    faces with face twist < 0.001                          : 162
    faces on cells with determinant < 0.0001                : 29
displacementMedialAxis : Iteration 9
Moving mesh using displacement scaling : min:0.0750846863  max:1
Checking faces in error :
    non-orthogonality > 70  degrees                        : 136
    faces with face pyramid volume < 1e-30                 : 18
    faces with concavity > 80  degrees                     : 1
    faces with skewness > 4   (internal) or 20  (boundary) : 0
    faces with interpolation weights (0..1)  < 0.005       : 3
    faces with volume ratio of neighbour cells < 0.001     : 0
    faces with face twist < 0.001                          : 158
    faces on cells with determinant < 0.0001                : 29
displacementMedialAxis : Iteration 10
Moving mesh using displacement scaling : min:0.0563135147  max:1
Checking faces in error :
    non-orthogonality > 70  degrees                        : 131
    faces with face pyramid volume < 1e-30                 : 12
    faces with concavity > 80  degrees                     : 0
    faces with skewness > 4   (internal) or 20  (boundary) : 0
    faces with interpolation weights (0..1)  < 0.005       : 2
    faces with volume ratio of neighbour cells < 0.001     : 0
    faces with face twist < 0.001                          : 151
    faces on cells with determinant < 0.0001                : 29
displacementMedialAxis : Iteration 11
Moving mesh using displacement scaling : min:0.042235136  max:1
Checking faces in error :
    non-orthogonality > 70  degrees                        : 129
    faces with face pyramid volume < 1e-30                 : 7
    faces with concavity > 80  degrees                     : 0
    faces with skewness > 4   (internal) or 20  (boundary) : 0
    faces with interpolation weights (0..1)  < 0.005       : 4
    faces with volume ratio of neighbour cells < 0.001     : 0
    faces with face twist < 0.001                          : 145
    faces on cells with determinant < 0.0001                : 29
displacementMedialAxis : Iteration 12
Moving mesh using displacement scaling : min:0.031676352  max:1
Checking faces in error :
    non-orthogonality > 70  degrees                        : 129
    faces with face pyramid volume < 1e-30                 : 7
    faces with concavity > 80  degrees                     : 0
    faces with skewness > 4   (internal) or 20  (boundary) : 0
    faces with interpolation weights (0..1)  < 0.005       : 2
    faces with volume ratio of neighbour cells < 0.001     : 0
    faces with face twist < 0.001                          : 145
    faces on cells with determinant < 0.0001                : 29
displacementMedialAxis : Iteration 13
Moving mesh using displacement scaling : min:0.023757264  max:1
Checking faces in error :
    non-orthogonality > 70  degrees                        : 130
    faces with face pyramid volume < 1e-30                 : 6
    faces with concavity > 80  degrees                     : 1
    faces with skewness > 4   (internal) or 20  (boundary) : 0
    faces with interpolation weights (0..1)  < 0.005       : 2
    faces with volume ratio of neighbour cells < 0.001     : 0
    faces with face twist < 0.001                          : 141
    faces on cells with determinant < 0.0001                : 29
displacementMedialAxis : Iteration 14
Moving mesh using displacement scaling : min:0.017817948  max:1
Checking faces in error :
    non-orthogonality > 70  degrees                        : 127
    faces with face pyramid volume < 1e-30                 : 4
    faces with concavity > 80  degrees                     : 0
    faces with skewness > 4   (internal) or 20  (boundary) : 0
    faces with interpolation weights (0..1)  < 0.005       : 2
    faces with volume ratio of neighbour cells < 0.001     : 0
    faces with face twist < 0.001                          : 138
    faces on cells with determinant < 0.0001                : 29
displacementMedialAxis : Successfully moved mesh
displacementMedialAxis : Finished moving mesh ...
truncateDisplacement : Unextruded 0 faces due to non-consecutive vertices being extruded.
truncateDisplacement : Unextruded 0 faces due to stringed edges with inconsistent extrusion.

Setting up information for layer truncation ...

Checking mesh with layer ...
Checking faces in error :
    non-orthogonality > 70  degrees                        : 135
    faces with face pyramid volume < 1e-30                 : 4
    faces with concavity > 80  degrees                     : 0
    faces with skewness > 4   (internal) or 20  (boundary) : 0
    faces with interpolation weights (0..1)  < 0.005       : 2
    faces with volume ratio of neighbour cells < 0.001     : 0
    faces with face twist < 0.001                          : 144
    faces on cells with determinant < 0.0001                : 29
Detected 314 illegal faces (concave, zero area or negative cell pyramid volume)
[2] Checked mesh with layers. Disabled extrusion at 
[2]     (0.148823209 0.782649207 0.00240023531)
[2]     (0.151593203 0.78892085 0.00265664366)
[2]     (0.176219871 0.764122257 0.00257363197)
[2]     (-0.129786304 0.782845514 0.00298936366)
[2]     (-0.160449435 0.757885431 0.0023875126)
[2]     (-0.163620011 0.767349837 0.00243720183)
[2]     (-0.0334193905 2.42143606 1.98277404)
[2]     (0.0334194256 2.42143606 1.98277398)
[2]     (-0.017229016 2.42143606 1.98101847)
[2]     (0.0172289346 2.42143606 1.98101845)
Extruding 51591 out of 51605 faces (99.9728708%). Removed extrusion at 10 faces.
Added 205498 out of 206420 cells (99.5533379%).

Growing non-extrusion points by one layer ...
Set displacement to zero for an additional 186 points.


Layer addition iteration 1
--------------------------

Determining displacement for added points according to pointNormal ...
Detected 0 points with point normal pointing through faces.
Reset displacement at 0 points to average of surrounding points.

displacementMedialAxis : Smoothing using Medial Axis ...
displacementMedialAxis : Reducing layer thickness at 1697 nodes where thickness to medial axis distance is large 
displacementMedialAxis : Removing isolated regions ...
displacementMedialAxis : Number of isolated points extrusion stopped : 0
displacementMedialAxis : Smoothing field ...
    Iteration 0   residual 1.24779921e-05
displacementMedialAxis : Moving mesh ...
displacementMedialAxis : Iteration 0
Moving mesh using displacement scaling : min:1  max:1
Checking faces in error :
    non-orthogonality > 70  degrees                        : 5424
    faces with face pyramid volume < 1e-30                 : 558
    faces with concavity > 80  degrees                     : 16
    faces with skewness > 4   (internal) or 20  (boundary) : 3
    faces with interpolation weights (0..1)  < 0.005       : 0
    faces with volume ratio of neighbour cells < 0.001     : 1
    faces with face twist < 0.001                          : 501
    faces on cells with determinant < 0.0001                : 99
displacementMedialAxis : Iteration 1
Moving mesh using displacement scaling : min:0.75  max:1
Checking faces in error :
    non-orthogonality > 70  degrees                        : 2120
    faces with face pyramid volume < 1e-30                 : 316
    faces with concavity > 80  degrees                     : 48
    faces with skewness > 4   (internal) or 20  (boundary) : 0
    faces with interpolation weights (0..1)  < 0.005       : 2
    faces with volume ratio of neighbour cells < 0.001     : 0
    faces with face twist < 0.001                          : 599
    faces on cells with determinant < 0.0001                : 66
displacementMedialAxis : Iteration 2
Moving mesh using displacement scaling : min:0.5625  max:1
Checking faces in error :
    non-orthogonality > 70  degrees                        : 1010
    faces with face pyramid volume < 1e-30                 : 312
    faces with concavity > 80  degrees                     : 57
    faces with skewness > 4   (internal) or 20  (boundary) : 1
    faces with interpolation weights (0..1)  < 0.005       : 5
    faces with volume ratio of neighbour cells < 0.001     : 0
    faces with face twist < 0.001                          : 581
    faces on cells with determinant < 0.0001                : 36
displacementMedialAxis : Iteration 3
Moving mesh using displacement scaling : min:0.421875  max:1
Checking faces in error :
    non-orthogonality > 70  degrees                        : 544
    faces with face pyramid volume < 1e-30                 : 148
    faces with concavity > 80  degrees                     : 23
    faces with skewness > 4   (internal) or 20  (boundary) : 0
    faces with interpolation weights (0..1)  < 0.005       : 3
    faces with volume ratio of neighbour cells < 0.001     : 0
    faces with face twist < 0.001                          : 410
    faces on cells with determinant < 0.0001                : 29
displacementMedialAxis : Iteration 4
Moving mesh using displacement scaling : min:0.31640625  max:1
Checking faces in error :
    non-orthogonality > 70  degrees                        : 450
    faces with face pyramid volume < 1e-30                 : 115
    faces with concavity > 80  degrees                     : 20
    faces with skewness > 4   (internal) or 20  (boundary) : 0
    faces with interpolation weights (0..1)  < 0.005       : 3
    faces with volume ratio of neighbour cells < 0.001     : 0
    faces with face twist < 0.001                          : 281
    faces on cells with determinant < 0.0001                : 30
displacementMedialAxis : Iteration 5
Moving mesh using displacement scaling : min:0.237304687  max:1
Checking faces in error :
    non-orthogonality > 70  degrees                        : 494
    faces with face pyramid volume < 1e-30                 : 195
    faces with concavity > 80  degrees                     : 13
    faces with skewness > 4   (internal) or 20  (boundary) : 0
    faces with interpolation weights (0..1)  < 0.005       : 6
    faces with volume ratio of neighbour cells < 0.001     : 0
    faces with face twist < 0.001                          : 246
    faces on cells with determinant < 0.0001                : 29
displacementMedialAxis : Iteration 6
Moving mesh using displacement scaling : min:0.177978516  max:1
Checking faces in error :
    non-orthogonality > 70  degrees                        : 163
    faces with face pyramid volume < 1e-30                 : 41
    faces with concavity > 80  degrees                     : 1
    faces with skewness > 4   (internal) or 20  (boundary) : 0
    faces with interpolation weights (0..1)  < 0.005       : 5
    faces with volume ratio of neighbour cells < 0.001     : 0
    faces with face twist < 0.001                          : 220
    faces on cells with determinant < 0.0001                : 29
displacementMedialAxis : Iteration 7
Moving mesh using displacement scaling : min:0.133483887  max:1
Checking faces in error :
    non-orthogonality > 70  degrees                        : 150
    faces with face pyramid volume < 1e-30                 : 29
    faces with concavity > 80  degrees                     : 1
    faces with skewness > 4   (internal) or 20  (boundary) : 0
    faces with interpolation weights (0..1)  < 0.005       : 3
    faces with volume ratio of neighbour cells < 0.001     : 0
    faces with face twist < 0.001                          : 207
    faces on cells with determinant < 0.0001                : 29
displacementMedialAxis : Iteration 8
Moving mesh using displacement scaling : min:0.100112915  max:1
Checking faces in error :
    non-orthogonality > 70  degrees                        : 134
    faces with face pyramid volume < 1e-30                 : 18
    faces with concavity > 80  degrees                     : 0
    faces with skewness > 4   (internal) or 20  (boundary) : 0
    faces with interpolation weights (0..1)  < 0.005       : 3
    faces with volume ratio of neighbour cells < 0.001     : 0
    faces with face twist < 0.001                          : 172
    faces on cells with determinant < 0.0001                : 29
displacementMedialAxis : Iteration 9
Moving mesh using displacement scaling : min:0.0750846863  max:1
Checking faces in error :
    non-orthogonality > 70  degrees                        : 129
    faces with face pyramid volume < 1e-30                 : 14
    faces with concavity > 80  degrees                     : 1
    faces with skewness > 4   (internal) or 20  (boundary) : 0
    faces with interpolation weights (0..1)  < 0.005       : 3
    faces with volume ratio of neighbour cells < 0.001     : 0
    faces with face twist < 0.001                          : 167
    faces on cells with determinant < 0.0001                : 29
displacementMedialAxis : Iteration 10
Moving mesh using displacement scaling : min:0.0563135147  max:1
Checking faces in error :
    non-orthogonality > 70  degrees                        : 126
    faces with face pyramid volume < 1e-30                 : 7
    faces with concavity > 80  degrees                     : 0
    faces with skewness > 4   (internal) or 20  (boundary) : 0
    faces with interpolation weights (0..1)  < 0.005       : 2
    faces with volume ratio of neighbour cells < 0.001     : 0
    faces with face twist < 0.001                          : 160
    faces on cells with determinant < 0.0001                : 29
displacementMedialAxis : Iteration 11
Moving mesh using displacement scaling : min:0.042235136  max:1
Checking faces in error :
    non-orthogonality > 70  degrees                        : 126
    faces with face pyramid volume < 1e-30                 : 8
    faces with concavity > 80  degrees                     : 0
    faces with skewness > 4   (internal) or 20  (boundary) : 0
    faces with interpolation weights (0..1)  < 0.005       : 3
    faces with volume ratio of neighbour cells < 0.001     : 0
    faces with face twist < 0.001                          : 162
    faces on cells with determinant < 0.0001                : 29
displacementMedialAxis : Iteration 12
Moving mesh using displacement scaling : min:0.031676352  max:1
Checking faces in error :
    non-orthogonality > 70  degrees                        : 127
    faces with face pyramid volume < 1e-30                 : 5
    faces with concavity > 80  degrees                     : 0
    faces with skewness > 4   (internal) or 20  (boundary) : 0
    faces with interpolation weights (0..1)  < 0.005       : 2
    faces with volume ratio of neighbour cells < 0.001     : 0
    faces with face twist < 0.001                          : 154
    faces on cells with determinant < 0.0001                : 29
displacementMedialAxis : Iteration 13
Moving mesh using displacement scaling : min:0.023757264  max:1
Checking faces in error :
    non-orthogonality > 70  degrees                        : 128
    faces with face pyramid volume < 1e-30                 : 3
    faces with concavity > 80  degrees                     : 1
    faces with skewness > 4   (internal) or 20  (boundary) : 0
    faces with interpolation weights (0..1)  < 0.005       : 2
    faces with volume ratio of neighbour cells < 0.001     : 0
    faces with face twist < 0.001                          : 154
    faces on cells with determinant < 0.0001                : 29
displacementMedialAxis : Iteration 14
Moving mesh using displacement scaling : min:0.017817948  max:1
Checking faces in error :
    non-orthogonality > 70  degrees                        : 126
    faces with face pyramid volume < 1e-30                 : 3
    faces with concavity > 80  degrees                     : 0
    faces with skewness > 4   (internal) or 20  (boundary) : 0
    faces with interpolation weights (0..1)  < 0.005       : 2
    faces with volume ratio of neighbour cells < 0.001     : 0
    faces with face twist < 0.001                          : 151
    faces on cells with determinant < 0.0001                : 29
displacementMedialAxis : Iteration 15
Moving mesh using displacement scaling : min:0.013363461  max:1
Checking faces in error :
    non-orthogonality > 70  degrees                        : 126
    faces with face pyramid volume < 1e-30                 : 3
    faces with concavity > 80  degrees                     : 0
    faces with skewness > 4   (internal) or 20  (boundary) : 0
    faces with interpolation weights (0..1)  < 0.005       : 3
    faces with volume ratio of neighbour cells < 0.001     : 0
    faces with face twist < 0.001                          : 146
    faces on cells with determinant < 0.0001                : 29
displacementMedialAxis : Iteration 16
Moving mesh using displacement scaling : min:0.0100225958  max:1
Checking faces in error :
    non-orthogonality > 70  degrees                        : 128
    faces with face pyramid volume < 1e-30                 : 3
    faces with concavity > 80  degrees                     : 0
    faces with skewness > 4   (internal) or 20  (boundary) : 0
    faces with interpolation weights (0..1)  < 0.005       : 2
    faces with volume ratio of neighbour cells < 0.001     : 0
    faces with face twist < 0.001                          : 145
    faces on cells with determinant < 0.0001                : 29
displacementMedialAxis : Iteration 17
Moving mesh using displacement scaling : min:0.00751694682  max:1
Checking faces in error :
    non-orthogonality > 70  degrees                        : 127
    faces with face pyramid volume < 1e-30                 : 3
    faces with concavity > 80  degrees                     : 0
    faces with skewness > 4   (internal) or 20  (boundary) : 0
    faces with interpolation weights (0..1)  < 0.005       : 2
    faces with volume ratio of neighbour cells < 0.001     : 0
    faces with face twist < 0.001                          : 143
    faces on cells with determinant < 0.0001                : 29
displacementMedialAxis : Iteration 18
Moving mesh using displacement scaling : min:0.00563771011  max:1
Checking faces in error :
    non-orthogonality > 70  degrees                        : 127
    faces with face pyramid volume < 1e-30                 : 3
    faces with concavity > 80  degrees                     : 0
    faces with skewness > 4   (internal) or 20  (boundary) : 0
    faces with interpolation weights (0..1)  < 0.005       : 2
    faces with volume ratio of neighbour cells < 0.001     : 0
    faces with face twist < 0.001                          : 143
    faces on cells with determinant < 0.0001                : 29
displacementMedialAxis : Iteration 19
Moving mesh using displacement scaling : min:0.00422828259  max:1
Checking faces in error :
    non-orthogonality > 70  degrees                        : 128
    faces with face pyramid volume < 1e-30                 : 2
    faces with concavity > 80  degrees                     : 0
    faces with skewness > 4   (internal) or 20  (boundary) : 0
    faces with interpolation weights (0..1)  < 0.005       : 3
    faces with volume ratio of neighbour cells < 0.001     : 0
    faces with face twist < 0.001                          : 146
    faces on cells with determinant < 0.0001                : 29
displacementMedialAxis : Iteration 20
displacementMedialAxis : Displacement scaling for error reduction set to 0.
Moving mesh using displacement scaling : min:0.00317121194  max:1
Checking faces in error :
    non-orthogonality > 70  degrees                        : 127
    faces with face pyramid volume < 1e-30                 : 2
    faces with concavity > 80  degrees                     : 0
    faces with skewness > 4   (internal) or 20  (boundary) : 0
    faces with interpolation weights (0..1)  < 0.005       : 3
    faces with volume ratio of neighbour cells < 0.001     : 0
    faces with face twist < 0.001                          : 140
    faces on cells with determinant < 0.0001                : 29
displacementMedialAxis : Successfully moved mesh
displacementMedialAxis : Finished moving mesh ...
truncateDisplacement : Unextruded 0 faces due to non-consecutive vertices being extruded.
truncateDisplacement : Unextruded 0 faces due to stringed edges with inconsistent extrusion.

Setting up information for layer truncation ...

Checking mesh with layer ...
Checking faces in error :
    non-orthogonality > 70  degrees                        : 127
    faces with face pyramid volume < 1e-30                 : 2
    faces with concavity > 80  degrees                     : 0
    faces with skewness > 4   (internal) or 20  (boundary) : 0
    faces with interpolation weights (0..1)  < 0.005       : 3
    faces with volume ratio of neighbour cells < 0.001     : 0
    faces with face twist < 0.001                          : 140
    faces on cells with determinant < 0.0001                : 29
Detected 301 illegal faces (concave, zero area or negative cell pyramid volume)
Extruding 51428 out of 51605 faces (99.65701%). Removed extrusion at 0 faces.
Added 204420 out of 206420 cells (99.0311016%).
Edge intersection testing:
    Number of edges             : 7575011
    Number of edges to retest   : 0
    Number of intersected edges : 408414

Doing final balancing
---------------------


patch        faces    layers   overall thickness
                               [m]       [%]
-----        -----    ------   ---       ---
room_SIDE2   9999     4        0.0186    100     
room_FLOOR   7799     3.78     0.0145    78.3    
room_CEILING 4896     4        0.0186    100     
room_BACK    18282    3.99     0.0185    99.8    
room_SIDE1   9999     4        0.0186    100     
room_OUTLET2 316      4        0.0186    100     
room_OUTLET1 314      3.59     0.0171    92      

Layer mesh : cells:2370372  faces:7575011  points:2869070
Cells per refinement level:
    0	44660
    1	193469
    2	178676
    3	152774
    4	1490362
    5	310431
Writing mesh to time 2
Wrote mesh in = 141.56 s.
Layers added in = 141.56 s.
Checking final mesh ...
Checking faces in error :
    non-orthogonality > 70  degrees                        : 127
    faces with face pyramid volume < 1e-30                 : 2
    faces with concavity > 80  degrees                     : 0
    faces with skewness > 4   (internal) or 20  (boundary) : 0
    faces with interpolation weights (0..1)  < 0.005       : 3
    faces with volume ratio of neighbour cells < 0.001     : 0
    faces with face twist < 0.001                          : 140
    faces on cells with determinant < 0.0001                : 29
Finished meshing with 301 illegal faces (concave, zero area or negative cell pyramid volume)
Finished meshing in = 151.97 s.
End

Finalising parallel run
