/*---------------------------------------------------------------------------*\
| =========                 |                                                 |
| \\      /  F ield         | OpenFOAM: The Open Source CFD Toolbox           |
|  \\    /   O peration     | Version:  2.3.1                                 |
|   \\  /    A nd           | Web:      www.OpenFOAM.org                      |
|    \\/     M anipulation  |                                                 |
\*---------------------------------------------------------------------------*/
Build  : 2.3.1-bcfaaa7b8660
Exec   : radiationFoam -parallel
Date   : May 29 2017
Time   : 21:54:10
Host   : "ubuntu"
PID    : 2821
Case   : /home/cong/Desktop/AIVC/Case5
nProcs : 4
Slaves : 
3
(
"ubuntu.2822"
"ubuntu.2823"
"ubuntu.2824"
)

Pstream initialized with:
    floatTransfer      : 0
    nProcsSimpleSum    : 0
    commsType          : nonBlocking
    polling iterations : 0
sigFpe : Enabling floating point exception trapping (FOAM_SIGFPE).
fileModificationChecking : Monitoring run-time modified files using timeStampMaster
allowSystemOperations : Allowing user-supplied system call operations

// * * * * * * * * * * * * * * * * * * * * * * * * * * * * * * * * * * * * * //
Create time

Create mesh for time = 0


Reading g
Reading thermophysical properties

Selecting thermodynamics package 
{
    type            heRhoThermo;
    mixture         pureMixture;
    transport       const;
    thermo          hConst;
    equationOfState perfectGas;
    specie          specie;
    energy          sensibleEnthalpy;
}

Reading field U

Reading/calculating face flux field phi

Creating turbulence model

Selecting RAS turbulence model kOmegaSST
kOmegaSSTCoeffs
{
    alphaK1         0.85;
    alphaK2         1;
    alphaOmega1     0.5;
    alphaOmega2     0.856;
    Prt             1;
    gamma1          0.555555556;
    gamma2          0.44;
    beta1           0.075;
    beta2           0.0828;
    betaStar        0.09;
    a1              0.31;
    b1              1;
    c1              10;
    F3              false;
}

Calculating field g.h

Reading field p_rgh

No finite volume options present

Selecting radiationModel fvDOM
Selecting absorptionEmissionModel none
Selecting scatterModel none
Selecting sootModel none
fvDOM : Allocated 60 rays with average orientation:
	I0 : omega : 	0.0999984679
	I1 : omega : 	0.0999984679
	I2 : omega : 	0.0999984679
	I3 : omega : 	0.0999984679
	I4 : omega : 	0.0999984679
	I5 : omega : 	0.0999984679
	I6 : omega : 	0.0999984679
	I7 : omega : 	0.0999984679
	I8 : omega : 	0.0999984679
	I9 : omega : 	0.0999984679
	I10 : omega : 	0.0999984679
	I11 : omega : 	0.0999984679
	I12 : omega : 	0.261799388
	I13 : omega : 	0.261799388
	I14 : omega : 	0.261799388
	I15 : omega : 	0.261799388
	I16 : omega : 	0.261799388
	I17 : omega : 	0.261799388
	I18 : omega : 	0.261799388
	I19 : omega : 	0.261799388
	I20 : omega : 	0.261799388
	I21 : omega : 	0.261799388
	I22 : omega : 	0.261799388
	I23 : omega : 	0.261799388
	I24 : omega : 	0.32360184
	I25 : omega : 	0.32360184
	I26 : omega : 	0.32360184
	I27 : omega : 	0.32360184
	I28 : omega : 	0.32360184
	I29 : omega : 	0.32360184
	I30 : omega : 	0.32360184
	I31 : omega : 	0.32360184
	I32 : omega : 	0.32360184
	I33 : omega : 	0.32360184
	I34 : omega : 	0.32360184
	I35 : omega : 	0.32360184
	I36 : omega : 	0.261799388
	I37 : omega : 	0.261799388
	I38 : omega : 	0.261799388
	I39 : omega : 	0.261799388
	I40 : omega : 	0.261799388
	I41 : omega : 	0.261799388
	I42 : omega : 	0.261799388
	I43 : omega : 	0.261799388
	I44 : omega : 	0.261799388
	I45 : omega : 	0.261799388
	I46 : omega : 	0.261799388
	I47 : omega : 	0.261799388
	I48 : omega : 	0.0999984679
	I49 : omega : 	0.0999984679
	I50 : omega : 	0.0999984679
	I51 : omega : 	0.0999984679
	I52 : omega : 	0.0999984679
	I53 : omega : 	0.0999984679
	I54 : omega : 	0.0999984679
	I55 : omega : 	0.0999984679
	I56 : omega : 	0.0999984679
	I57 : omega : 	0.0999984679
	I58 : omega : 	0.0999984679
	I59 : omega : 	0.0999984679


SIMPLE: convergence criteria
    field "(p_rgh|p)"	 tolerance 1e-07
    field U	 tolerance 1e-08
    field h	 tolerance 1e-08
    field "(k|epsilon|omega)"	 tolerance 1e-08


Starting time loop

forceCoeffs forceCoeffs1:
    Not including porosity effects

Time = 1

ExecutionTime = 4.06 s  ClockTime = 4 s

wallHeatFlux wallHeatFlux output:

Wall heat fluxes [W]
room_SIDE2
    convective: 0
    radiative:  -0
    total:      0
    Temperature : min = 293.55, max = 293.55, average = 293.55
room_FLOOR
    convective: 0
    radiative:  -0
    total:      0
    Temperature : min = 293.55, max = 293.55, average = 293.55
room_CEILING
    convective: 0
    radiative:  -0
    total:      0
    Temperature : min = 293.55, max = 293.55, average = 293.55
room_BACK
    convective: 0
    radiative:  -0
    total:      0
    Temperature : min = 293.55, max = 293.55, average = 293.55
room_SIDE1
    convective: 0
    radiative:  -0
    total:      0
    Temperature : min = 293.55, max = 293.55, average = 293.55
manikin
    convective: 1918.61557
    radiative:  -0
    total:      1918.61557
    Temperature : min = 307.15, max = 307.15, average = 307.15

yPlusRAS yplusRAS output:
    patch room_SIDE2 y+ : min = 0.628826338, max = 2.88619683, average = 2.70844379
    patch room_FLOOR y+ : min = 0.160969906, max = 2.88619649, average = 1.86929758
    patch room_CEILING y+ : min = 0.747111756, max = 2.8861965, average = 2.67122461
    patch room_BACK y+ : min = 1.00747525, max = 6.33815513, average = 1.42396152
    patch room_SIDE1 y+ : min = 0.628826834, max = 2.88619682, average = 2.70843579
    patch manikin y+ : min = 0.0548866625, max = 2.82299245, average = 0.322204425

yPlusRASLowRe yplusRASLowRe output:
room_SIDE2
    y+ : min = 0, max = 0, average = 0
    y : min = 0.000544684214, max = 0.00250000001, average = 0.00234603179
room_FLOOR
    y+ : min = 0, max = 0, average = 0
    y : min = 0.000139430812, max = 0.00249999971, average = 0.00161917022
room_CEILING
    y+ : min = 0, max = 0, average = 0
    y : min = 0.000647142072, max = 0.00249999973, average = 0.00231379284
room_BACK
    y+ : min = 0, max = 0, average = 0
    y : min = 0.000872666798, max = 0.00549005797, average = 0.00123342378
room_SIDE1
    y+ : min = 0, max = 0, average = 0
    y : min = 0.000544684643, max = 0.0025, average = 0.00234602486
manikin
    y+ : min = 0, max = 0, average = 0
    y : min = 4.97449872e-05, max = 0.00255854003, average = 0.000292020944

forceCoeffs forceCoeffs1 output:
    Cm    = -4499.86349
    Cd    = -99.5598637
    Cl    = -8664.87679
    Cl(f) = -8832.30188
    Cl(r) = 167.425092

Time = 2

ExecutionTime = 5.07 s  ClockTime = 5 s

wallHeatFlux wallHeatFlux output:

Wall heat fluxes [W]
room_SIDE2
    convective: 0
    radiative:  -0
    total:      0
    Temperature : min = 293.55, max = 293.55, average = 293.55
room_FLOOR
    convective: 0
    radiative:  -0
    total:      0
    Temperature : min = 293.55, max = 293.55, average = 293.55
room_CEILING
    convective: 0
    radiative:  -0
    total:      0
    Temperature : min = 293.55, max = 293.55, average = 293.55
room_BACK
    convective: 0
    radiative:  -0
    total:      0
    Temperature : min = 293.55, max = 293.55, average = 293.55
room_SIDE1
    convective: 0
    radiative:  -0
    total:      0
    Temperature : min = 293.55, max = 293.55, average = 293.55
manikin
    convective: 1918.61557
    radiative:  -0
    total:      1918.61557
    Temperature : min = 307.15, max = 307.15, average = 307.15

yPlusRAS yplusRAS output:
    patch room_SIDE2 y+ : min = 0.628826338, max = 2.88619683, average = 2.70844379
    patch room_FLOOR y+ : min = 0.160969906, max = 2.88619649, average = 1.86929758
    patch room_CEILING y+ : min = 0.747111756, max = 2.8861965, average = 2.67122461
    patch room_BACK y+ : min = 1.00747525, max = 6.33815513, average = 1.42396152
    patch room_SIDE1 y+ : min = 0.628826834, max = 2.88619682, average = 2.70843579
    patch manikin y+ : min = 0.0548866625, max = 2.82299245, average = 0.322204425

yPlusRASLowRe yplusRASLowRe output:
room_SIDE2
    y+ : min = 0, max = 0, average = 0
    y : min = 0.000544684214, max = 0.00250000001, average = 0.00234603179
room_FLOOR
    y+ : min = 0, max = 0, average = 0
    y : min = 0.000139430812, max = 0.00249999971, average = 0.00161917022
room_CEILING
    y+ : min = 0, max = 0, average = 0
    y : min = 0.000647142072, max = 0.00249999973, average = 0.00231379284
room_BACK
    y+ : min = 0, max = 0, average = 0
    y : min = 0.000872666798, max = 0.00549005797, average = 0.00123342378
room_SIDE1
    y+ : min = 0, max = 0, average = 0
    y : min = 0.000544684643, max = 0.0025, average = 0.00234602486
manikin
    y+ : min = 0, max = 0, average = 0
    y : min = 4.97449872e-05, max = 0.00255854003, average = 0.000292020944

forceCoeffs forceCoeffs1 output:
    Cm    = -4499.86349
    Cd    = -99.5598637
    Cl    = -8664.87679
    Cl(f) = -8832.30188
    Cl(r) = 167.425092

Time = 3

ExecutionTime = 5.94 s  ClockTime = 6 s

wallHeatFlux wallHeatFlux output:

Wall heat fluxes [W]
room_SIDE2
    convective: 0
    radiative:  -0
    total:      0
    Temperature : min = 293.55, max = 293.55, average = 293.55
room_FLOOR
    convective: 0
    radiative:  -0
    total:      0
    Temperature : min = 293.55, max = 293.55, average = 293.55
room_CEILING
    convective: 0
    radiative:  -0
    total:      0
    Temperature : min = 293.55, max = 293.55, average = 293.55
room_BACK
    convective: 0
    radiative:  -0
    total:      0
    Temperature : min = 293.55, max = 293.55, average = 293.55
room_SIDE1
    convective: 0
    radiative:  -0
    total:      0
    Temperature : min = 293.55, max = 293.55, average = 293.55
manikin
    convective: 1918.61557
    radiative:  -0
    total:      1918.61557
    Temperature : min = 307.15, max = 307.15, average = 307.15

yPlusRAS yplusRAS output:
    patch room_SIDE2 y+ : min = 0.628826338, max = 2.88619683, average = 2.70844379
    patch room_FLOOR y+ : min = 0.160969906, max = 2.88619649, average = 1.86929758
    patch room_CEILING y+ : min = 0.747111756, max = 2.8861965, average = 2.67122461
    patch room_BACK y+ : min = 1.00747525, max = 6.33815513, average = 1.42396152
    patch room_SIDE1 y+ : min = 0.628826834, max = 2.88619682, average = 2.70843579
    patch manikin y+ : min = 0.0548866625, max = 2.82299245, average = 0.322204425

yPlusRASLowRe yplusRASLowRe output:
room_SIDE2
    y+ : min = 0, max = 0, average = 0
    y : min = 0.000544684214, max = 0.00250000001, average = 0.00234603179
room_FLOOR
    y+ : min = 0, max = 0, average = 0
    y : min = 0.000139430812, max = 0.00249999971, average = 0.00161917022
room_CEILING
    y+ : min = 0, max = 0, average = 0
    y : min = 0.000647142072, max = 0.00249999973, average = 0.00231379284
room_BACK
    y+ : min = 0, max = 0, average = 0
    y : min = 0.000872666798, max = 0.00549005797, average = 0.00123342378
room_SIDE1
    y+ : min = 0, max = 0, average = 0
    y : min = 0.000544684643, max = 0.0025, average = 0.00234602486
manikin
    y+ : min = 0, max = 0, average = 0
    y : min = 4.97449872e-05, max = 0.00255854003, average = 0.000292020944

forceCoeffs forceCoeffs1 output:
    Cm    = -4499.86349
    Cd    = -99.5598637
    Cl    = -8664.87679
    Cl(f) = -8832.30188
    Cl(r) = 167.425092

Time = 4

ExecutionTime = 6.89 s  ClockTime = 7 s

wallHeatFlux wallHeatFlux output:

Wall heat fluxes [W]
room_SIDE2
    convective: 0
    radiative:  -0
    total:      0
    Temperature : min = 293.55, max = 293.55, average = 293.55
room_FLOOR
    convective: 0
    radiative:  -0
    total:      0
    Temperature : min = 293.55, max = 293.55, average = 293.55
room_CEILING
    convective: 0
    radiative:  -0
    total:      0
    Temperature : min = 293.55, max = 293.55, average = 293.55
room_BACK
    convective: 0
    radiative:  -0
    total:      0
    Temperature : min = 293.55, max = 293.55, average = 293.55
room_SIDE1
    convective: 0
    radiative:  -0
    total:      0
    Temperature : min = 293.55, max = 293.55, average = 293.55
manikin
    convective: 1918.61557
    radiative:  -0
    total:      1918.61557
    Temperature : min = 307.15, max = 307.15, average = 307.15

yPlusRAS yplusRAS output:
    patch room_SIDE2 y+ : min = 0.628826338, max = 2.88619683, average = 2.70844379
    patch room_FLOOR y+ : min = 0.160969906, max = 2.88619649, average = 1.86929758
    patch room_CEILING y+ : min = 0.747111756, max = 2.8861965, average = 2.67122461
    patch room_BACK y+ : min = 1.00747525, max = 6.33815513, average = 1.42396152
    patch room_SIDE1 y+ : min = 0.628826834, max = 2.88619682, average = 2.70843579
    patch manikin y+ : min = 0.0548866625, max = 2.82299245, average = 0.322204425

yPlusRASLowRe yplusRASLowRe output:
room_SIDE2
    y+ : min = 0, max = 0, average = 0
    y : min = 0.000544684214, max = 0.00250000001, average = 0.00234603179
room_FLOOR
    y+ : min = 0, max = 0, average = 0
    y : min = 0.000139430812, max = 0.00249999971, average = 0.00161917022
room_CEILING
    y+ : min = 0, max = 0, average = 0
    y : min = 0.000647142072, max = 0.00249999973, average = 0.00231379284
room_BACK
    y+ : min = 0, max = 0, average = 0
    y : min = 0.000872666798, max = 0.00549005797, average = 0.00123342378
room_SIDE1
    y+ : min = 0, max = 0, average = 0
    y : min = 0.000544684643, max = 0.0025, average = 0.00234602486
manikin
    y+ : min = 0, max = 0, average = 0
    y : min = 4.97449872e-05, max = 0.00255854003, average = 0.000292020944

forceCoeffs forceCoeffs1 output:
    Cm    = -4499.86349
    Cd    = -99.5598637
    Cl    = -8664.87679
    Cl(f) = -8832.30188
    Cl(r) = 167.425092

Time = 5

ExecutionTime = 7.81 s  ClockTime = 8 s

wallHeatFlux wallHeatFlux output:

Wall heat fluxes [W]
room_SIDE2
    convective: 0
    radiative:  -0
    total:      0
    Temperature : min = 293.55, max = 293.55, average = 293.55
room_FLOOR
    convective: 0
    radiative:  -0
    total:      0
    Temperature : min = 293.55, max = 293.55, average = 293.55
room_CEILING
    convective: 0
    radiative:  -0
    total:      0
    Temperature : min = 293.55, max = 293.55, average = 293.55
room_BACK
    convective: 0
    radiative:  -0
    total:      0
    Temperature : min = 293.55, max = 293.55, average = 293.55
room_SIDE1
    convective: 0
    radiative:  -0
    total:      0
    Temperature : min = 293.55, max = 293.55, average = 293.55
manikin
    convective: 1918.61557
    radiative:  -0
    total:      1918.61557
    Temperature : min = 307.15, max = 307.15, average = 307.15

yPlusRAS yplusRAS output:
    patch room_SIDE2 y+ : min = 0.628826338, max = 2.88619683, average = 2.70844379
    patch room_FLOOR y+ : min = 0.160969906, max = 2.88619649, average = 1.86929758
    patch room_CEILING y+ : min = 0.747111756, max = 2.8861965, average = 2.67122461
    patch room_BACK y+ : min = 1.00747525, max = 6.33815513, average = 1.42396152
    patch room_SIDE1 y+ : min = 0.628826834, max = 2.88619682, average = 2.70843579
    patch manikin y+ : min = 0.0548866625, max = 2.82299245, average = 0.322204425

yPlusRASLowRe yplusRASLowRe output:
room_SIDE2
    y+ : min = 0, max = 0, average = 0
    y : min = 0.000544684214, max = 0.00250000001, average = 0.00234603179
room_FLOOR
    y+ : min = 0, max = 0, average = 0
    y : min = 0.000139430812, max = 0.00249999971, average = 0.00161917022
room_CEILING
    y+ : min = 0, max = 0, average = 0
    y : min = 0.000647142072, max = 0.00249999973, average = 0.00231379284
room_BACK
    y+ : min = 0, max = 0, average = 0
    y : min = 0.000872666798, max = 0.00549005797, average = 0.00123342378
room_SIDE1
    y+ : min = 0, max = 0, average = 0
    y : min = 0.000544684643, max = 0.0025, average = 0.00234602486
manikin
    y+ : min = 0, max = 0, average = 0
    y : min = 4.97449872e-05, max = 0.00255854003, average = 0.000292020944

forceCoeffs forceCoeffs1 output:
    Cm    = -4499.86349
    Cd    = -99.5598637
    Cl    = -8664.87679
    Cl(f) = -8832.30188
    Cl(r) = 167.425092

Time = 6

ExecutionTime = 8.75 s  ClockTime = 9 s

wallHeatFlux wallHeatFlux output:

Wall heat fluxes [W]
room_SIDE2
    convective: 0
    radiative:  -0
    total:      0
    Temperature : min = 293.55, max = 293.55, average = 293.55
room_FLOOR
    convective: 0
    radiative:  -0
    total:      0
    Temperature : min = 293.55, max = 293.55, average = 293.55
room_CEILING
    convective: 0
    radiative:  -0
    total:      0
    Temperature : min = 293.55, max = 293.55, average = 293.55
room_BACK
    convective: 0
    radiative:  -0
    total:      0
    Temperature : min = 293.55, max = 293.55, average = 293.55
room_SIDE1
    convective: 0
    radiative:  -0
    total:      0
    Temperature : min = 293.55, max = 293.55, average = 293.55
manikin
    convective: 1918.61557
    radiative:  -0
    total:      1918.61557
    Temperature : min = 307.15, max = 307.15, average = 307.15

yPlusRAS yplusRAS output:
    patch room_SIDE2 y+ : min = 0.628826338, max = 2.88619683, average = 2.70844379
    patch room_FLOOR y+ : min = 0.160969906, max = 2.88619649, average = 1.86929758
    patch room_CEILING y+ : min = 0.747111756, max = 2.8861965, average = 2.67122461
    patch room_BACK y+ : min = 1.00747525, max = 6.33815513, average = 1.42396152
    patch room_SIDE1 y+ : min = 0.628826834, max = 2.88619682, average = 2.70843579
    patch manikin y+ : min = 0.0548866625, max = 2.82299245, average = 0.322204425

yPlusRASLowRe yplusRASLowRe output:
room_SIDE2
    y+ : min = 0, max = 0, average = 0
    y : min = 0.000544684214, max = 0.00250000001, average = 0.00234603179
room_FLOOR
    y+ : min = 0, max = 0, average = 0
    y : min = 0.000139430812, max = 0.00249999971, average = 0.00161917022
room_CEILING
    y+ : min = 0, max = 0, average = 0
    y : min = 0.000647142072, max = 0.00249999973, average = 0.00231379284
room_BACK
    y+ : min = 0, max = 0, average = 0
    y : min = 0.000872666798, max = 0.00549005797, average = 0.00123342378
room_SIDE1
    y+ : min = 0, max = 0, average = 0
    y : min = 0.000544684643, max = 0.0025, average = 0.00234602486
manikin
    y+ : min = 0, max = 0, average = 0
    y : min = 4.97449872e-05, max = 0.00255854003, average = 0.000292020944

forceCoeffs forceCoeffs1 output:
    Cm    = -4499.86349
    Cd    = -99.5598637
    Cl    = -8664.87679
    Cl(f) = -8832.30188
    Cl(r) = 167.425092

Time = 7

ExecutionTime = 9.68 s  ClockTime = 10 s

wallHeatFlux wallHeatFlux output:

Wall heat fluxes [W]
room_SIDE2
    convective: 0
    radiative:  -0
    total:      0
    Temperature : min = 293.55, max = 293.55, average = 293.55
room_FLOOR
    convective: 0
    radiative:  -0
    total:      0
    Temperature : min = 293.55, max = 293.55, average = 293.55
room_CEILING
    convective: 0
    radiative:  -0
    total:      0
    Temperature : min = 293.55, max = 293.55, average = 293.55
room_BACK
    convective: 0
    radiative:  -0
    total:      0
    Temperature : min = 293.55, max = 293.55, average = 293.55
room_SIDE1
    convective: 0
    radiative:  -0
    total:      0
    Temperature : min = 293.55, max = 293.55, average = 293.55
manikin
    convective: 1918.61557
    radiative:  -0
    total:      1918.61557
    Temperature : min = 307.15, max = 307.15, average = 307.15

yPlusRAS yplusRAS output:
    patch room_SIDE2 y+ : min = 0.628826338, max = 2.88619683, average = 2.70844379
    patch room_FLOOR y+ : min = 0.160969906, max = 2.88619649, average = 1.86929758
    patch room_CEILING y+ : min = 0.747111756, max = 2.8861965, average = 2.67122461
    patch room_BACK y+ : min = 1.00747525, max = 6.33815513, average = 1.42396152
    patch room_SIDE1 y+ : min = 0.628826834, max = 2.88619682, average = 2.70843579
    patch manikin y+ : min = 0.0548866625, max = 2.82299245, average = 0.322204425

yPlusRASLowRe yplusRASLowRe output:
room_SIDE2
    y+ : min = 0, max = 0, average = 0
    y : min = 0.000544684214, max = 0.00250000001, average = 0.00234603179
room_FLOOR
    y+ : min = 0, max = 0, average = 0
    y : min = 0.000139430812, max = 0.00249999971, average = 0.00161917022
room_CEILING
    y+ : min = 0, max = 0, average = 0
    y : min = 0.000647142072, max = 0.00249999973, average = 0.00231379284
room_BACK
    y+ : min = 0, max = 0, average = 0
    y : min = 0.000872666798, max = 0.00549005797, average = 0.00123342378
room_SIDE1
    y+ : min = 0, max = 0, average = 0
    y : min = 0.000544684643, max = 0.0025, average = 0.00234602486
manikin
    y+ : min = 0, max = 0, average = 0
    y : min = 4.97449872e-05, max = 0.00255854003, average = 0.000292020944

forceCoeffs forceCoeffs1 output:
    Cm    = -4499.86349
    Cd    = -99.5598637
    Cl    = -8664.87679
    Cl(f) = -8832.30188
    Cl(r) = 167.425092

Time = 8

ExecutionTime = 10.65 s  ClockTime = 11 s

wallHeatFlux wallHeatFlux output:

Wall heat fluxes [W]
room_SIDE2
    convective: 0
    radiative:  -0
    total:      0
    Temperature : min = 293.55, max = 293.55, average = 293.55
room_FLOOR
    convective: 0
    radiative:  -0
    total:      0
    Temperature : min = 293.55, max = 293.55, average = 293.55
room_CEILING
    convective: 0
    radiative:  -0
    total:      0
    Temperature : min = 293.55, max = 293.55, average = 293.55
room_BACK
    convective: 0
    radiative:  -0
    total:      0
    Temperature : min = 293.55, max = 293.55, average = 293.55
room_SIDE1
    convective: 0
    radiative:  -0
    total:      0
    Temperature : min = 293.55, max = 293.55, average = 293.55
manikin
    convective: 1918.61557
    radiative:  -0
    total:      1918.61557
    Temperature : min = 307.15, max = 307.15, average = 307.15

yPlusRAS yplusRAS output:
    patch room_SIDE2 y+ : min = 0.628826338, max = 2.88619683, average = 2.70844379
    patch room_FLOOR y+ : min = 0.160969906, max = 2.88619649, average = 1.86929758
    patch room_CEILING y+ : min = 0.747111756, max = 2.8861965, average = 2.67122461
    patch room_BACK y+ : min = 1.00747525, max = 6.33815513, average = 1.42396152
    patch room_SIDE1 y+ : min = 0.628826834, max = 2.88619682, average = 2.70843579
    patch manikin y+ : min = 0.0548866625, max = 2.82299245, average = 0.322204425

yPlusRASLowRe yplusRASLowRe output:
room_SIDE2
    y+ : min = 0, max = 0, average = 0
    y : min = 0.000544684214, max = 0.00250000001, average = 0.00234603179
room_FLOOR
    y+ : min = 0, max = 0, average = 0
    y : min = 0.000139430812, max = 0.00249999971, average = 0.00161917022
room_CEILING
    y+ : min = 0, max = 0, average = 0
    y : min = 0.000647142072, max = 0.00249999973, average = 0.00231379284
room_BACK
    y+ : min = 0, max = 0, average = 0
    y : min = 0.000872666798, max = 0.00549005797, average = 0.00123342378
room_SIDE1
    y+ : min = 0, max = 0, average = 0
    y : min = 0.000544684643, max = 0.0025, average = 0.00234602486
manikin
    y+ : min = 0, max = 0, average = 0
    y : min = 4.97449872e-05, max = 0.00255854003, average = 0.000292020944

forceCoeffs forceCoeffs1 output:
    Cm    = -4499.86349
    Cd    = -99.5598637
    Cl    = -8664.87679
    Cl(f) = -8832.30188
    Cl(r) = 167.425092

Time = 9

ExecutionTime = 11.58 s  ClockTime = 12 s

wallHeatFlux wallHeatFlux output:

Wall heat fluxes [W]
room_SIDE2
    convective: 0
    radiative:  -0
    total:      0
    Temperature : min = 293.55, max = 293.55, average = 293.55
room_FLOOR
    convective: 0
    radiative:  -0
    total:      0
    Temperature : min = 293.55, max = 293.55, average = 293.55
room_CEILING
    convective: 0
    radiative:  -0
    total:      0
    Temperature : min = 293.55, max = 293.55, average = 293.55
room_BACK
    convective: 0
    radiative:  -0
    total:      0
    Temperature : min = 293.55, max = 293.55, average = 293.55
room_SIDE1
    convective: 0
    radiative:  -0
    total:      0
    Temperature : min = 293.55, max = 293.55, average = 293.55
manikin
    convective: 1918.61557
    radiative:  -0
    total:      1918.61557
    Temperature : min = 307.15, max = 307.15, average = 307.15

yPlusRAS yplusRAS output:
    patch room_SIDE2 y+ : min = 0.628826338, max = 2.88619683, average = 2.70844379
    patch room_FLOOR y+ : min = 0.160969906, max = 2.88619649, average = 1.86929758
    patch room_CEILING y+ : min = 0.747111756, max = 2.8861965, average = 2.67122461
    patch room_BACK y+ : min = 1.00747525, max = 6.33815513, average = 1.42396152
    patch room_SIDE1 y+ : min = 0.628826834, max = 2.88619682, average = 2.70843579
    patch manikin y+ : min = 0.0548866625, max = 2.82299245, average = 0.322204425

yPlusRASLowRe yplusRASLowRe output:
room_SIDE2
    y+ : min = 0, max = 0, average = 0
    y : min = 0.000544684214, max = 0.00250000001, average = 0.00234603179
room_FLOOR
    y+ : min = 0, max = 0, average = 0
    y : min = 0.000139430812, max = 0.00249999971, average = 0.00161917022
room_CEILING
    y+ : min = 0, max = 0, average = 0
    y : min = 0.000647142072, max = 0.00249999973, average = 0.00231379284
room_BACK
    y+ : min = 0, max = 0, average = 0
    y : min = 0.000872666798, max = 0.00549005797, average = 0.00123342378
room_SIDE1
    y+ : min = 0, max = 0, average = 0
    y : min = 0.000544684643, max = 0.0025, average = 0.00234602486
manikin
    y+ : min = 0, max = 0, average = 0
    y : min = 4.97449872e-05, max = 0.00255854003, average = 0.000292020944

forceCoeffs forceCoeffs1 output:
    Cm    = -4499.86349
    Cd    = -99.5598637
    Cl    = -8664.87679
    Cl(f) = -8832.30188
    Cl(r) = 167.425092

Time = 10

ExecutionTime = 12.54 s  ClockTime = 13 s

wallHeatFlux wallHeatFlux output:

Wall heat fluxes [W]
room_SIDE2
    convective: 0
    radiative:  -0
    total:      0
    Temperature : min = 293.55, max = 293.55, average = 293.55
room_FLOOR
    convective: 0
    radiative:  -0
    total:      0
    Temperature : min = 293.55, max = 293.55, average = 293.55
room_CEILING
    convective: 0
    radiative:  -0
    total:      0
    Temperature : min = 293.55, max = 293.55, average = 293.55
room_BACK
    convective: 0
    radiative:  -0
    total:      0
    Temperature : min = 293.55, max = 293.55, average = 293.55
room_SIDE1
    convective: 0
    radiative:  -0
    total:      0
    Temperature : min = 293.55, max = 293.55, average = 293.55
manikin
    convective: 1918.61557
    radiative:  -0
    total:      1918.61557
    Temperature : min = 307.15, max = 307.15, average = 307.15

yPlusRAS yplusRAS output:
    patch room_SIDE2 y+ : min = 0.628826338, max = 2.88619683, average = 2.70844379
    patch room_FLOOR y+ : min = 0.160969906, max = 2.88619649, average = 1.86929758
    patch room_CEILING y+ : min = 0.747111756, max = 2.8861965, average = 2.67122461
    patch room_BACK y+ : min = 1.00747525, max = 6.33815513, average = 1.42396152
    patch room_SIDE1 y+ : min = 0.628826834, max = 2.88619682, average = 2.70843579
    patch manikin y+ : min = 0.0548866625, max = 2.82299245, average = 0.322204425

yPlusRASLowRe yplusRASLowRe output:
room_SIDE2
    y+ : min = 0, max = 0, average = 0
    y : min = 0.000544684214, max = 0.00250000001, average = 0.00234603179
room_FLOOR
    y+ : min = 0, max = 0, average = 0
    y : min = 0.000139430812, max = 0.00249999971, average = 0.00161917022
room_CEILING
    y+ : min = 0, max = 0, average = 0
    y : min = 0.000647142072, max = 0.00249999973, average = 0.00231379284
room_BACK
    y+ : min = 0, max = 0, average = 0
    y : min = 0.000872666798, max = 0.00549005797, average = 0.00123342378
room_SIDE1
    y+ : min = 0, max = 0, average = 0
    y : min = 0.000544684643, max = 0.0025, average = 0.00234602486
manikin
    y+ : min = 0, max = 0, average = 0
    y : min = 4.97449872e-05, max = 0.00255854003, average = 0.000292020944

forceCoeffs forceCoeffs1 output:
    Cm    = -4499.86349
    Cd    = -99.5598637
    Cl    = -8664.87679
    Cl(f) = -8832.30188
    Cl(r) = 167.425092

Time = 11

Time Index = 11;    solver frequency = 10
Radiation solver iter: 0
GAMG:  Solving for ILambda_0_0, Initial residual = 1, Final residual = 0.00733345934, No Iterations 1
GAMG:  Solving for ILambda_1_0, Initial residual = 1, Final residual = 0.00539211048, No Iterations 1
GAMG:  Solving for ILambda_2_0, Initial residual = 1, Final residual = 0.00493643585, No Iterations 1
GAMG:  Solving for ILambda_3_0, Initial residual = 1, Final residual = 0.00453178502, No Iterations 1
GAMG:  Solving for ILambda_4_0, Initial residual = 1, Final residual = 0.00589615159, No Iterations 1
GAMG:  Solving for ILambda_5_0, Initial residual = 1, Final residual = 0.00849019253, No Iterations 1
GAMG:  Solving for ILambda_6_0, Initial residual = 1, Final residual = 0.00857047319, No Iterations 1
GAMG:  Solving for ILambda_7_0, Initial residual = 1, Final residual = 0.00639147423, No Iterations 1
GAMG:  Solving for ILambda_8_0, Initial residual = 1, Final residual = 0.00557205605, No Iterations 1
GAMG:  Solving for ILambda_9_0, Initial residual = 1, Final residual = 0.00671800563, No Iterations 1
GAMG:  Solving for ILambda_10_0, Initial residual = 1, Final residual = 0.00753533604, No Iterations 1
GAMG:  Solving for ILambda_11_0, Initial residual = 1, Final residual = 0.00874132193, No Iterations 1
GAMG:  Solving for ILambda_12_0, Initial residual = 1, Final residual = 0.00941453431, No Iterations 1
GAMG:  Solving for ILambda_13_0, Initial residual = 1, Final residual = 0.00550703124, No Iterations 1
GAMG:  Solving for ILambda_14_0, Initial residual = 1, Final residual = 0.00382710552, No Iterations 1
GAMG:  Solving for ILambda_15_0, Initial residual = 1, Final residual = 0.00361702127, No Iterations 1
GAMG:  Solving for ILambda_16_0, Initial residual = 1, Final residual = 0.00522832212, No Iterations 1
GAMG:  Solving for ILambda_17_0, Initial residual = 1, Final residual = 0.00889087341, No Iterations 1
GAMG:  Solving for ILambda_18_0, Initial residual = 1, Final residual = 0.0086166306, No Iterations 1
GAMG:  Solving for ILambda_19_0, Initial residual = 1, Final residual = 0.00554953796, No Iterations 1
GAMG:  Solving for ILambda_20_0, Initial residual = 1, Final residual = 0.00452572871, No Iterations 1
GAMG:  Solving for ILambda_21_0, Initial residual = 1, Final residual = 0.00579937665, No Iterations 1
GAMG:  Solving for ILambda_22_0, Initial residual = 1, Final residual = 0.00775381289, No Iterations 1
GAMG:  Solving for ILambda_23_0, Initial residual = 1, Final residual = 0.00256514409, No Iterations 2
GAMG:  Solving for ILambda_24_0, Initial residual = 1, Final residual = 0.00781606586, No Iterations 1
GAMG:  Solving for ILambda_25_0, Initial residual = 1, Final residual = 0.00513039462, No Iterations 1
GAMG:  Solving for ILambda_26_0, Initial residual = 1, Final residual = 0.00357843457, No Iterations 1
GAMG:  Solving for ILambda_27_0, Initial residual = 1, Final residual = 0.00391462253, No Iterations 1
GAMG:  Solving for ILambda_28_0, Initial residual = 1, Final residual = 0.00568756809, No Iterations 1
GAMG:  Solving for ILambda_29_0, Initial residual = 1, Final residual = 0.00446560555, No Iterations 2
GAMG:  Solving for ILambda_30_0, Initial residual = 1, Final residual = 0.00785794615, No Iterations 1
GAMG:  Solving for ILambda_31_0, Initial residual = 1, Final residual = 0.00533635546, No Iterations 1
GAMG:  Solving for ILambda_32_0, Initial residual = 1, Final residual = 0.00461515051, No Iterations 1
GAMG:  Solving for ILambda_33_0, Initial residual = 1, Final residual = 0.0062550036, No Iterations 1
GAMG:  Solving for ILambda_34_0, Initial residual = 1, Final residual = 0.00818676963, No Iterations 1
GAMG:  Solving for ILambda_35_0, Initial residual = 1, Final residual = 0.00999088942, No Iterations 1
GAMG:  Solving for ILambda_36_0, Initial residual = 1, Final residual = 0.00320110751, No Iterations 2
GAMG:  Solving for ILambda_37_0, Initial residual = 1, Final residual = 0.00683850758, No Iterations 1
GAMG:  Solving for ILambda_38_0, Initial residual = 1, Final residual = 0.00450463558, No Iterations 1
GAMG:  Solving for ILambda_39_0, Initial residual = 1, Final residual = 0.00354156137, No Iterations 1
GAMG:  Solving for ILambda_40_0, Initial residual = 1, Final residual = 0.00463309148, No Iterations 1
GAMG:  Solving for ILambda_41_0, Initial residual = 1, Final residual = 0.006634178, No Iterations 1
GAMG:  Solving for ILambda_42_0, Initial residual = 1, Final residual = 0.00577726786, No Iterations 1
GAMG:  Solving for ILambda_43_0, Initial residual = 1, Final residual = 0.00411674389, No Iterations 1
GAMG:  Solving for ILambda_44_0, Initial residual = 1, Final residual = 0.00352569181, No Iterations 1
GAMG:  Solving for ILambda_45_0, Initial residual = 1, Final residual = 0.00503946175, No Iterations 1
GAMG:  Solving for ILambda_46_0, Initial residual = 1, Final residual = 0.00716324258, No Iterations 1
GAMG:  Solving for ILambda_47_0, Initial residual = 1, Final residual = 0.00299065333, No Iterations 2
GAMG:  Solving for ILambda_48_0, Initial residual = 1, Final residual = 0.0087518542, No Iterations 1
GAMG:  Solving for ILambda_49_0, Initial residual = 1, Final residual = 0.00632591036, No Iterations 1
GAMG:  Solving for ILambda_50_0, Initial residual = 1, Final residual = 0.00520889064, No Iterations 1
GAMG:  Solving for ILambda_51_0, Initial residual = 1, Final residual = 0.00393333376, No Iterations 1
GAMG:  Solving for ILambda_52_0, Initial residual = 1, Final residual = 0.00413014707, No Iterations 1
GAMG:  Solving for ILambda_53_0, Initial residual = 1, Final residual = 0.00497688728, No Iterations 1
GAMG:  Solving for ILambda_54_0, Initial residual = 1, Final residual = 0.00484997343, No Iterations 1
GAMG:  Solving for ILambda_55_0, Initial residual = 1, Final residual = 0.00388575916, No Iterations 1
GAMG:  Solving for ILambda_56_0, Initial residual = 1, Final residual = 0.00367253928, No Iterations 1
GAMG:  Solving for ILambda_57_0, Initial residual = 1, Final residual = 0.00532325742, No Iterations 1
GAMG:  Solving for ILambda_58_0, Initial residual = 1, Final residual = 0.00643297091, No Iterations 1
GAMG:  Solving for ILambda_59_0, Initial residual = 1, Final residual = 0.00879866404, No Iterations 1
Radiation solver iter: 1
GAMG:  Solving for ILambda_0_0, Initial residual = 0.0545149267, Final residual = 0.000245579087, No Iterations 4
GAMG:  Solving for ILambda_1_0, Initial residual = 0.0386030634, Final residual = 0.000352355635, No Iterations 3
GAMG:  Solving for ILambda_2_0, Initial residual = 0.033315916, Final residual = 0.000325094764, No Iterations 3
GAMG:  Solving for ILambda_3_0, Initial residual = 0.0308429147, Final residual = 0.000103057907, No Iterations 4
GAMG:  Solving for ILambda_4_0, Initial residual = 0.042754306, Final residual = 0.000190435446, No Iterations 3
GAMG:  Solving for ILambda_5_0, Initial residual = 0.0615843797, Final residual = 0.000330407985, No Iterations 3
GAMG:  Solving for ILambda_6_0, Initial residual = 0.0666976088, Final residual = 0.000512741574, No Iterations 3
GAMG:  Solving for ILambda_7_0, Initial residual = 0.0561786209, Final residual = 0.000292331868, No Iterations 3
GAMG:  Solving for ILambda_8_0, Initial residual = 0.0505373476, Final residual = 0.000504299476, No Iterations 3
GAMG:  Solving for ILambda_9_0, Initial residual = 0.0577458405, Final residual = 0.000136103755, No Iterations 4
GAMG:  Solving for ILambda_10_0, Initial residual = 0.0631107781, Final residual = 0.000543082656, No Iterations 3
GAMG:  Solving for ILambda_11_0, Initial residual = 0.0685681179, Final residual = 0.000297942944, No Iterations 4
GAMG:  Solving for ILambda_12_0, Initial residual = 0.084525497, Final residual = 0.000195996276, No Iterations 4
GAMG:  Solving for ILambda_13_0, Initial residual = 0.0565614518, Final residual = 0.000177001506, No Iterations 3
GAMG:  Solving for ILambda_14_0, Initial residual = 0.0444871221, Final residual = 0.000133466306, No Iterations 3
GAMG:  Solving for ILambda_15_0, Initial residual = 0.052094983, Final residual = 0.000270028979, No Iterations 3
GAMG:  Solving for ILambda_16_0, Initial residual = 0.0809112163, Final residual = 0.000183955514, No Iterations 3
GAMG:  Solving for ILambda_17_0, Initial residual = 0.125654205, Final residual = 0.000739808699, No Iterations 3
GAMG:  Solving for ILambda_18_0, Initial residual = 0.17413515, Final residual = 0.00118176914, No Iterations 3
GAMG:  Solving for ILambda_19_0, Initial residual = 0.187470068, Final residual = 0.000585216545, No Iterations 3
GAMG:  Solving for ILambda_20_0, Initial residual = 0.182703515, Final residual = 0.000562091293, No Iterations 3
GAMG:  Solving for ILambda_21_0, Initial residual = 0.180437583, Final residual = 0.000486191236, No Iterations 3
GAMG:  Solving for ILambda_22_0, Initial residual = 0.176137495, Final residual = 0.00072691498, No Iterations 3
GAMG:  Solving for ILambda_23_0, Initial residual = 0.0930664254, Final residual = 0.000321206923, No Iterations 4
GAMG:  Solving for ILambda_24_0, Initial residual = 0.197918126, Final residual = 0.00103219999, No Iterations 4
GAMG:  Solving for ILambda_25_0, Initial residual = 0.216368215, Final residual = 0.00158527254, No Iterations 3
GAMG:  Solving for ILambda_26_0, Initial residual = 0.217835305, Final residual = 0.00205295036, No Iterations 2
GAMG:  Solving for ILambda_27_0, Initial residual = 0.245469327, Final residual = 0.000745046029, No Iterations 3
GAMG:  Solving for ILambda_28_0, Initial residual = 0.314416706, Final residual = 0.00248240127, No Iterations 3
GAMG:  Solving for ILambda_29_0, Initial residual = 0.387750447, Final residual = 0.00158990916, No Iterations 5
GAMG:  Solving for ILambda_30_0, Initial residual = 0.574075689, Final residual = 0.0028945152, No Iterations 3
GAMG:  Solving for ILambda_31_0, Initial residual = 0.612242102, Final residual = 0.00482925796, No Iterations 2
GAMG:  Solving for ILambda_32_0, Initial residual = 0.589793684, Final residual = 0.00337076356, No Iterations 2
GAMG:  Solving for ILambda_33_0, Initial residual = 0.584870031, Final residual = 0.00459217098, No Iterations 2
GAMG:  Solving for ILambda_34_0, Initial residual = 0.538613959, Final residual = 0.00338553962, No Iterations 3
GAMG:  Solving for ILambda_35_0, Initial residual = 0.399110165, Final residual = 0.00294375964, No Iterations 4
GAMG:  Solving for ILambda_36_0, Initial residual = 0.449866563, Final residual = 0.00160477959, No Iterations 4
GAMG:  Solving for ILambda_37_0, Initial residual = 0.630583318, Final residual = 0.00158260185, No Iterations 3
GAMG:  Solving for ILambda_38_0, Initial residual = 0.684391737, Final residual = 0.00409937652, No Iterations 2
GAMG:  Solving for ILambda_39_0, Initial residual = 0.70922078, Final residual = 0.0040914638, No Iterations 2
GAMG:  Solving for ILambda_40_0, Initial residual = 0.732742759, Final residual = 0.00475665981, No Iterations 2
GAMG:  Solving for ILambda_41_0, Initial residual = 0.778830079, Final residual = 0.00632668734, No Iterations 2
GAMG:  Solving for ILambda_42_0, Initial residual = 0.844908968, Final residual = 0.00415213185, No Iterations 2
GAMG:  Solving for ILambda_43_0, Initial residual = 0.87231068, Final residual = 0.00184739576, No Iterations 2
GAMG:  Solving for ILambda_44_0, Initial residual = 0.88343563, Final residual = 0.00176001581, No Iterations 2
GAMG:  Solving for ILambda_45_0, Initial residual = 0.84832246, Final residual = 0.0031898307, No Iterations 2
GAMG:  Solving for ILambda_46_0, Initial residual = 0.769892791, Final residual = 0.00585992049, No Iterations 2
GAMG:  Solving for ILambda_47_0, Initial residual = 0.536264854, Final residual = 0.00164919904, No Iterations 4
GAMG:  Solving for ILambda_48_0, Initial residual = 0.72755336, Final residual = 0.00234206699, No Iterations 3
GAMG:  Solving for ILambda_49_0, Initial residual = 0.773844129, Final residual = 0.0050187517, No Iterations 2
GAMG:  Solving for ILambda_50_0, Initial residual = 0.838501012, Final residual = 0.00377176556, No Iterations 2
GAMG:  Solving for ILambda_51_0, Initial residual = 0.870205357, Final residual = 0.00330142671, No Iterations 2
GAMG:  Solving for ILambda_52_0, Initial residual = 0.873550896, Final residual = 0.00336839341, No Iterations 2
GAMG:  Solving for ILambda_53_0, Initial residual = 0.86116606, Final residual = 0.00470354057, No Iterations 2
GAMG:  Solving for ILambda_54_0, Initial residual = 0.861133739, Final residual = 0.00478618887, No Iterations 2
GAMG:  Solving for ILambda_55_0, Initial residual = 0.875831668, Final residual = 0.00277308815, No Iterations 2
GAMG:  Solving for ILambda_56_0, Initial residual = 0.871662373, Final residual = 0.00275995869, No Iterations 2
GAMG:  Solving for ILambda_57_0, Initial residual = 0.839096829, Final residual = 0.00368715084, No Iterations 2
GAMG:  Solving for ILambda_58_0, Initial residual = 0.773377642, Final residual = 0.00503033424, No Iterations 2
GAMG:  Solving for ILambda_59_0, Initial residual = 0.728776729, Final residual = 0.00232087585, No Iterations 3
Radiation solver iter: 2
GAMG:  Solving for ILambda_0_0, Initial residual = 0.741768589, Final residual = 0.00631317955, No Iterations 2
GAMG:  Solving for ILambda_1_0, Initial residual = 0.800182406, Final residual = 0.00242351051, No Iterations 2
GAMG:  Solving for ILambda_2_0, Initial residual = 0.848944, Final residual = 0.00207129241, No Iterations 2
GAMG:  Solving for ILambda_3_0, Initial residual = 0.870137702, Final residual = 0.00789190075, No Iterations 1
GAMG:  Solving for ILambda_4_0, Initial residual = 0.85566421, Final residual = 0.00262082059, No Iterations 2
GAMG:  Solving for ILambda_5_0, Initial residual = 0.826733419, Final residual = 0.00394717615, No Iterations 2
GAMG:  Solving for ILambda_6_0, Initial residual = 0.825627274, Final residual = 0.00308377287, No Iterations 2
GAMG:  Solving for ILambda_7_0, Initial residual = 0.853982117, Final residual = 0.0024378468, No Iterations 2
GAMG:  Solving for ILambda_8_0, Initial residual = 0.867621361, Final residual = 0.00793926105, No Iterations 1
GAMG:  Solving for ILambda_9_0, Initial residual = 0.846769624, Final residual = 0.003852522, No Iterations 2
GAMG:  Solving for ILambda_10_0, Initial residual = 0.799820074, Final residual = 0.00429719169, No Iterations 2
GAMG:  Solving for ILambda_11_0, Initial residual = 0.750529364, Final residual = 0.00690383202, No Iterations 2
GAMG:  Solving for ILambda_12_0, Initial residual = 0.680642653, Final residual = 0.00462251595, No Iterations 3
GAMG:  Solving for ILambda_13_0, Initial residual = 0.764582793, Final residual = 0.00291519442, No Iterations 2
GAMG:  Solving for ILambda_14_0, Initial residual = 0.849956493, Final residual = 0.00101964667, No Iterations 2
GAMG:  Solving for ILambda_15_0, Initial residual = 0.875284192, Final residual = 0.0062129108, No Iterations 1
GAMG:  Solving for ILambda_16_0, Initial residual = 0.854719991, Final residual = 0.00192837652, No Iterations 2
GAMG:  Solving for ILambda_17_0, Initial residual = 0.807124559, Final residual = 0.00600509593, No Iterations 2
GAMG:  Solving for ILambda_18_0, Initial residual = 0.795345832, Final residual = 0.00760547736, No Iterations 2
GAMG:  Solving for ILambda_19_0, Initial residual = 0.837032836, Final residual = 0.0040543848, No Iterations 2
GAMG:  Solving for ILambda_20_0, Initial residual = 0.794848763, Final residual = 0.00386823305, No Iterations 2
GAMG:  Solving for ILambda_21_0, Initial residual = 0.687992564, Final residual = 0.00383309871, No Iterations 2
GAMG:  Solving for ILambda_22_0, Initial residual = 0.693645603, Final residual = 0.00135024992, No Iterations 3
GAMG:  Solving for ILambda_23_0, Initial residual = 0.616326953, Final residual = 0.00547323829, No Iterations 3
GAMG:  Solving for ILambda_24_0, Initial residual = 0.257622258, Final residual = 0.000987858394, No Iterations 4
GAMG:  Solving for ILambda_25_0, Initial residual = 0.545624121, Final residual = 0.00471666389, No Iterations 2
GAMG:  Solving for ILambda_26_0, Initial residual = 0.545487271, Final residual = 0.0018686101, No Iterations 2
GAMG:  Solving for ILambda_27_0, Initial residual = 0.561006281, Final residual = 0.00253221352, No Iterations 2
GAMG:  Solving for ILambda_28_0, Initial residual = 0.617662745, Final residual = 0.00602699017, No Iterations 2
GAMG:  Solving for ILambda_29_0, Initial residual = 0.559952025, Final residual = 0.00406342445, No Iterations 4
GAMG:  Solving for ILambda_30_0, Initial residual = 0.422954449, Final residual = 0.00289895615, No Iterations 3
GAMG:  Solving for ILambda_31_0, Initial residual = 0.295937378, Final residual = 0.000947092437, No Iterations 3
GAMG:  Solving for ILambda_32_0, Initial residual = 0.232785294, Final residual = 0.0021276083, No Iterations 2
GAMG:  Solving for ILambda_33_0, Initial residual = 0.194948418, Final residual = 0.000535299291, No Iterations 3
GAMG:  Solving for ILambda_34_0, Initial residual = 0.172810365, Final residual = 0.00122421015, No Iterations 3
GAMG:  Solving for ILambda_35_0, Initial residual = 0.104388596, Final residual = 0.000438745195, No Iterations 5
GAMG:  Solving for ILambda_36_0, Initial residual = 0.0673005923, Final residual = 0.000257274797, No Iterations 4
GAMG:  Solving for ILambda_37_0, Initial residual = 0.132872214, Final residual = 0.000932988569, No Iterations 3
GAMG:  Solving for ILambda_38_0, Initial residual = 0.156875603, Final residual = 0.000492020318, No Iterations 3
GAMG:  Solving for ILambda_39_0, Initial residual = 0.160557109, Final residual = 0.000574983248, No Iterations 3
GAMG:  Solving for ILambda_40_0, Initial residual = 0.141201358, Final residual = 0.000646925081, No Iterations 3
GAMG:  Solving for ILambda_41_0, Initial residual = 0.106872644, Final residual = 0.000745366607, No Iterations 3
GAMG:  Solving for ILambda_42_0, Initial residual = 0.0684506201, Final residual = 0.000284317687, No Iterations 3
GAMG:  Solving for ILambda_43_0, Initial residual = 0.0528540459, Final residual = 8.22812966e-05, No Iterations 3
GAMG:  Solving for ILambda_44_0, Initial residual = 0.0431384482, Final residual = 0.000111865852, No Iterations 3
GAMG:  Solving for ILambda_45_0, Initial residual = 0.0348832638, Final residual = 4.18551898e-05, No Iterations 3
GAMG:  Solving for ILambda_46_0, Initial residual = 0.0312541467, Final residual = 0.000123055161, No Iterations 3
GAMG:  Solving for ILambda_47_0, Initial residual = 0.0176449062, Final residual = 5.65113234e-05, No Iterations 4
GAMG:  Solving for ILambda_48_0, Initial residual = 0.0156827513, Final residual = 0.000108465277, No Iterations 4
GAMG:  Solving for ILambda_49_0, Initial residual = 0.0266042458, Final residual = 0.0002126573, No Iterations 3
GAMG:  Solving for ILambda_50_0, Initial residual = 0.0310431339, Final residual = 0.00022119559, No Iterations 3
GAMG:  Solving for ILambda_51_0, Initial residual = 0.0320609535, Final residual = 0.000255283436, No Iterations 3
GAMG:  Solving for ILambda_52_0, Initial residual = 0.0295412869, Final residual = 0.000225121221, No Iterations 3
GAMG:  Solving for ILambda_53_0, Initial residual = 0.0237510608, Final residual = 0.000105417216, No Iterations 4
GAMG:  Solving for ILambda_54_0, Initial residual = 0.0192209778, Final residual = 6.44729644e-05, No Iterations 4
GAMG:  Solving for ILambda_55_0, Initial residual = 0.0178982075, Final residual = 8.98379698e-05, No Iterations 3
GAMG:  Solving for ILambda_56_0, Initial residual = 0.0166523326, Final residual = 0.000151117304, No Iterations 3
GAMG:  Solving for ILambda_57_0, Initial residual = 0.0156606743, Final residual = 8.06765458e-05, No Iterations 3
GAMG:  Solving for ILambda_58_0, Initial residual = 0.0147591393, Final residual = 6.92427877e-05, No Iterations 3
GAMG:  Solving for ILambda_59_0, Initial residual = 0.0100058687, Final residual = 3.40134797e-05, No Iterations 4
Radiation solver iter: 3
GAMG:  Solving for ILambda_0_0, Initial residual = 0.0334959889, Final residual = 0.000148143564, No Iterations 3
GAMG:  Solving for ILambda_1_0, Initial residual = 0.0336996855, Final residual = 0.000318611875, No Iterations 2
GAMG:  Solving for ILambda_2_0, Initial residual = 0.036062854, Final residual = 0.000304268976, No Iterations 2
GAMG:  Solving for ILambda_3_0, Initial residual = 0.0415298589, Final residual = 0.000179692113, No Iterations 3
GAMG:  Solving for ILambda_4_0, Initial residual = 0.0412235071, Final residual = 8.26751641e-05, No Iterations 3
GAMG:  Solving for ILambda_5_0, Initial residual = 0.0445155577, Final residual = 0.000168837245, No Iterations 3
GAMG:  Solving for ILambda_6_0, Initial residual = 0.0428259796, Final residual = 0.000208592855, No Iterations 3
GAMG:  Solving for ILambda_7_0, Initial residual = 0.0385516681, Final residual = 0.000124710066, No Iterations 3
GAMG:  Solving for ILambda_8_0, Initial residual = 0.0386166164, Final residual = 0.000234168704, No Iterations 3
GAMG:  Solving for ILambda_9_0, Initial residual = 0.0342923289, Final residual = 0.000153239477, No Iterations 3
GAMG:  Solving for ILambda_10_0, Initial residual = 0.0325974765, Final residual = 0.000116333163, No Iterations 3
GAMG:  Solving for ILambda_11_0, Initial residual = 0.0324299035, Final residual = 0.000186972954, No Iterations 3
GAMG:  Solving for ILambda_12_0, Initial residual = 0.0272177996, Final residual = 0.000144499947, No Iterations 3
GAMG:  Solving for ILambda_13_0, Initial residual = 0.0299104651, Final residual = 0.00016752651, No Iterations 2
GAMG:  Solving for ILambda_14_0, Initial residual = 0.0317676523, Final residual = 9.08835975e-05, No Iterations 2
GAMG:  Solving for ILambda_15_0, Initial residual = 0.0393456176, Final residual = 0.000327804199, No Iterations 2
GAMG:  Solving for ILambda_16_0, Initial residual = 0.0415121395, Final residual = 0.000228934382, No Iterations 2
GAMG:  Solving for ILambda_17_0, Initial residual = 0.0498567367, Final residual = 0.000139055857, No Iterations 3
GAMG:  Solving for ILambda_18_0, Initial residual = 0.0514470112, Final residual = 0.000136194498, No Iterations 3
GAMG:  Solving for ILambda_19_0, Initial residual = 0.0446630178, Final residual = 0.000236798502, No Iterations 2
GAMG:  Solving for ILambda_20_0, Initial residual = 0.0396691459, Final residual = 0.000212875106, No Iterations 2
GAMG:  Solving for ILambda_21_0, Initial residual = 0.0351910448, Final residual = 0.000159044475, No Iterations 2
GAMG:  Solving for ILambda_22_0, Initial residual = 0.030186248, Final residual = 0.000257507044, No Iterations 2
GAMG:  Solving for ILambda_23_0, Initial residual = 0.0286412391, Final residual = 0.000181064944, No Iterations 3
GAMG:  Solving for ILambda_24_0, Initial residual = 0.0210089809, Final residual = 0.000104269604, No Iterations 4
GAMG:  Solving for ILambda_25_0, Initial residual = 0.0327654589, Final residual = 0.000186548766, No Iterations 3
GAMG:  Solving for ILambda_26_0, Initial residual = 0.0359667637, Final residual = 0.000231838823, No Iterations 2
GAMG:  Solving for ILambda_27_0, Initial residual = 0.0407677473, Final residual = 0.00034150592, No Iterations 2
GAMG:  Solving for ILambda_28_0, Initial residual = 0.0471200569, Final residual = 0.000331711049, No Iterations 3
GAMG:  Solving for ILambda_29_0, Initial residual = 0.0509810755, Final residual = 0.000415325144, No Iterations 4
GAMG:  Solving for ILambda_30_0, Initial residual = 0.0498070849, Final residual = 0.000288209812, No Iterations 3
GAMG:  Solving for ILambda_31_0, Initial residual = 0.0440113871, Final residual = 0.000196347808, No Iterations 2
GAMG:  Solving for ILambda_32_0, Initial residual = 0.0405466212, Final residual = 0.000214330546, No Iterations 2
GAMG:  Solving for ILambda_33_0, Initial residual = 0.0349681788, Final residual = 0.000184393029, No Iterations 2
GAMG:  Solving for ILambda_34_0, Initial residual = 0.03078902, Final residual = 0.00015005888, No Iterations 3
GAMG:  Solving for ILambda_35_0, Initial residual = 0.0207804957, Final residual = 0.000168537583, No Iterations 4
GAMG:  Solving for ILambda_36_0, Initial residual = 0.0257457447, Final residual = 7.60000479e-05, No Iterations 4
GAMG:  Solving for ILambda_37_0, Initial residual = 0.0305061498, Final residual = 6.35513931e-05, No Iterations 3
GAMG:  Solving for ILambda_38_0, Initial residual = 0.032948644, Final residual = 0.000146567808, No Iterations 2
GAMG:  Solving for ILambda_39_0, Initial residual = 0.0347671389, Final residual = 0.000156803902, No Iterations 2
GAMG:  Solving for ILambda_40_0, Initial residual = 0.0337086049, Final residual = 0.000179481459, No Iterations 2
GAMG:  Solving for ILambda_41_0, Initial residual = 0.034169361, Final residual = 0.000291574913, No Iterations 2
GAMG:  Solving for ILambda_42_0, Initial residual = 0.033247536, Final residual = 0.000203625769, No Iterations 2
GAMG:  Solving for ILambda_43_0, Initial residual = 0.0319351781, Final residual = 0.000100594078, No Iterations 2
GAMG:  Solving for ILambda_44_0, Initial residual = 0.0325624442, Final residual = 9.51936304e-05, No Iterations 2
GAMG:  Solving for ILambda_45_0, Initial residual = 0.0307206206, Final residual = 0.000122584067, No Iterations 2
GAMG:  Solving for ILambda_46_0, Initial residual = 0.0280836273, Final residual = 0.000280338224, No Iterations 2
GAMG:  Solving for ILambda_47_0, Initial residual = 0.0244572312, Final residual = 6.24593671e-05, No Iterations 4
GAMG:  Solving for ILambda_48_0, Initial residual = 0.0322453221, Final residual = 0.000183950406, No Iterations 3
GAMG:  Solving for ILambda_49_0, Initial residual = 0.0308535883, Final residual = 9.29215572e-05, No Iterations 3
GAMG:  Solving for ILambda_50_0, Initial residual = 0.0315959816, Final residual = 9.34312944e-05, No Iterations 3
GAMG:  Solving for ILambda_51_0, Initial residual = 0.0322448001, Final residual = 0.00012716774, No Iterations 3
GAMG:  Solving for ILambda_52_0, Initial residual = 0.0325566604, Final residual = 0.000107473299, No Iterations 3
GAMG:  Solving for ILambda_53_0, Initial residual = 0.0333771897, Final residual = 0.00017951464, No Iterations 3
GAMG:  Solving for ILambda_54_0, Initial residual = 0.0341349786, Final residual = 0.000126661736, No Iterations 3
GAMG:  Solving for ILambda_55_0, Initial residual = 0.0343409242, Final residual = 0.000285803074, No Iterations 2
GAMG:  Solving for ILambda_56_0, Initial residual = 0.0352509581, Final residual = 0.000321559513, No Iterations 2
GAMG:  Solving for ILambda_57_0, Initial residual = 0.0349278981, Final residual = 0.000272550337, No Iterations 2
GAMG:  Solving for ILambda_58_0, Initial residual = 0.0332661334, Final residual = 0.000317070263, No Iterations 2
GAMG:  Solving for ILambda_59_0, Initial residual = 0.0331854539, Final residual = 0.000127425088, No Iterations 3
Radiation solver iter: 4
GAMG:  Solving for ILambda_0_0, Initial residual = 0.00773212481, Final residual = 3.27899908e-05, No Iterations 4
GAMG:  Solving for ILambda_1_0, Initial residual = 0.0108377778, Final residual = 5.57194379e-05, No Iterations 3
GAMG:  Solving for ILambda_2_0, Initial residual = 0.0128365467, Final residual = 4.89739061e-05, No Iterations 3
GAMG:  Solving for ILambda_3_0, Initial residual = 0.0141776617, Final residual = 9.07904315e-05, No Iterations 3
GAMG:  Solving for ILambda_4_0, Initial residual = 0.0154517993, Final residual = 7.28149848e-05, No Iterations 3
GAMG:  Solving for ILambda_5_0, Initial residual = 0.01518401, Final residual = 3.83294729e-05, No Iterations 4
GAMG:  Solving for ILambda_6_0, Initial residual = 0.0161889644, Final residual = 4.69495839e-05, No Iterations 4
GAMG:  Solving for ILambda_7_0, Initial residual = 0.0176222879, Final residual = 0.000118452389, No Iterations 3
GAMG:  Solving for ILambda_8_0, Initial residual = 0.0169578082, Final residual = 0.000137683326, No Iterations 3
GAMG:  Solving for ILambda_9_0, Initial residual = 0.0153932539, Final residual = 0.000102784506, No Iterations 3
GAMG:  Solving for ILambda_10_0, Initial residual = 0.0126328734, Final residual = 0.000110154276, No Iterations 3
GAMG:  Solving for ILambda_11_0, Initial residual = 0.00841807201, Final residual = 3.90325043e-05, No Iterations 4
GAMG:  Solving for ILambda_12_0, Initial residual = 0.00845173675, Final residual = 8.36162539e-05, No Iterations 3
GAMG:  Solving for ILambda_13_0, Initial residual = 0.01196547, Final residual = 2.11582757e-05, No Iterations 3
GAMG:  Solving for ILambda_14_0, Initial residual = 0.0139318939, Final residual = 9.27561576e-05, No Iterations 2
GAMG:  Solving for ILambda_15_0, Initial residual = 0.0161534501, Final residual = 0.000152776298, No Iterations 2
GAMG:  Solving for ILambda_16_0, Initial residual = 0.017505281, Final residual = 4.17234507e-05, No Iterations 3
GAMG:  Solving for ILambda_17_0, Initial residual = 0.0175357419, Final residual = 0.000106338743, No Iterations 3
GAMG:  Solving for ILambda_18_0, Initial residual = 0.0166562944, Final residual = 9.54747937e-05, No Iterations 3
GAMG:  Solving for ILambda_19_0, Initial residual = 0.0160015615, Final residual = 4.15111473e-05, No Iterations 3
GAMG:  Solving for ILambda_20_0, Initial residual = 0.0140952495, Final residual = 3.13100943e-05, No Iterations 3
GAMG:  Solving for ILambda_21_0, Initial residual = 0.0119751699, Final residual = 2.30220454e-05, No Iterations 3
GAMG:  Solving for ILambda_22_0, Initial residual = 0.0101573655, Final residual = 3.01385972e-05, No Iterations 3
GAMG:  Solving for ILambda_23_0, Initial residual = 0.00715005556, Final residual = 1.69302165e-05, No Iterations 4
GAMG:  Solving for ILambda_24_0, Initial residual = 0.00480486846, Final residual = 2.49836829e-05, No Iterations 4
GAMG:  Solving for ILambda_25_0, Initial residual = 0.00661968565, Final residual = 2.90045843e-05, No Iterations 3
GAMG:  Solving for ILambda_26_0, Initial residual = 0.007576193, Final residual = 6.21036938e-05, No Iterations 2
GAMG:  Solving for ILambda_27_0, Initial residual = 0.00829713541, Final residual = 3.3792164e-05, No Iterations 3
GAMG:  Solving for ILambda_28_0, Initial residual = 0.00857269435, Final residual = 7.65172792e-05, No Iterations 3
GAMG:  Solving for ILambda_29_0, Initial residual = 0.00869664765, Final residual = 8.11967732e-05, No Iterations 4
GAMG:  Solving for ILambda_30_0, Initial residual = 0.00696171131, Final residual = 5.43813954e-05, No Iterations 3
GAMG:  Solving for ILambda_31_0, Initial residual = 0.00569053426, Final residual = 5.00818927e-05, No Iterations 2
GAMG:  Solving for ILambda_32_0, Initial residual = 0.00483087123, Final residual = 4.48670373e-05, No Iterations 2
GAMG:  Solving for ILambda_33_0, Initial residual = 0.00412322154, Final residual = 2.02383594e-05, No Iterations 3
GAMG:  Solving for ILambda_34_0, Initial residual = 0.00353403104, Final residual = 2.02286794e-05, No Iterations 4
GAMG:  Solving for ILambda_35_0, Initial residual = 0.00254801391, Final residual = 2.48785271e-05, No Iterations 4
GAMG:  Solving for ILambda_36_0, Initial residual = 0.00210654465, Final residual = 5.06811782e-06, No Iterations 4
GAMG:  Solving for ILambda_37_0, Initial residual = 0.00250894788, Final residual = 4.94835815e-06, No Iterations 3
GAMG:  Solving for ILambda_38_0, Initial residual = 0.00285642365, Final residual = 1.49163214e-05, No Iterations 2
GAMG:  Solving for ILambda_39_0, Initial residual = 0.00303776092, Final residual = 1.86126185e-05, No Iterations 2
GAMG:  Solving for ILambda_40_0, Initial residual = 0.00296676513, Final residual = 1.88670813e-05, No Iterations 2
GAMG:  Solving for ILambda_41_0, Initial residual = 0.00304790078, Final residual = 7.14717869e-06, No Iterations 3
GAMG:  Solving for ILambda_42_0, Initial residual = 0.00294092329, Final residual = 1.54786837e-05, No Iterations 2
GAMG:  Solving for ILambda_43_0, Initial residual = 0.00282345669, Final residual = 7.1880207e-06, No Iterations 2
GAMG:  Solving for ILambda_44_0, Initial residual = 0.00288056953, Final residual = 7.54854208e-06, No Iterations 2
GAMG:  Solving for ILambda_45_0, Initial residual = 0.00273139491, Final residual = 9.46322685e-06, No Iterations 2
GAMG:  Solving for ILambda_46_0, Initial residual = 0.00260126332, Final residual = 1.80582404e-05, No Iterations 2
GAMG:  Solving for ILambda_47_0, Initial residual = 0.00198232611, Final residual = 1.87979287e-05, No Iterations 3
GAMG:  Solving for ILambda_48_0, Initial residual = 0.00266556846, Final residual = 1.62509125e-05, No Iterations 3
GAMG:  Solving for ILambda_49_0, Initial residual = 0.00269948137, Final residual = 1.00380498e-05, No Iterations 3
GAMG:  Solving for ILambda_50_0, Initial residual = 0.00297324158, Final residual = 1.72736186e-05, No Iterations 3
GAMG:  Solving for ILambda_51_0, Initial residual = 0.00316172377, Final residual = 1.99957465e-05, No Iterations 3
GAMG:  Solving for ILambda_52_0, Initial residual = 0.00318528351, Final residual = 2.21107278e-05, No Iterations 3
GAMG:  Solving for ILambda_53_0, Initial residual = 0.00324971724, Final residual = 2.1121237e-05, No Iterations 4
GAMG:  Solving for ILambda_54_0, Initial residual = 0.00322365456, Final residual = 1.83778358e-05, No Iterations 4
GAMG:  Solving for ILambda_55_0, Initial residual = 0.00336411052, Final residual = 1.96451783e-05, No Iterations 3
GAMG:  Solving for ILambda_56_0, Initial residual = 0.00343273142, Final residual = 2.42787761e-05, No Iterations 3
GAMG:  Solving for ILambda_57_0, Initial residual = 0.00326790688, Final residual = 1.67364576e-05, No Iterations 3
GAMG:  Solving for ILambda_58_0, Initial residual = 0.0030149062, Final residual = 1.11527321e-05, No Iterations 3
GAMG:  Solving for ILambda_59_0, Initial residual = 0.00262810607, Final residual = 1.38479239e-05, No Iterations 3
Radiation solver iter: 5
GAMG:  Solving for ILambda_0_0, Initial residual = 0.00240955384, Final residual = 1.17601986e-05, No Iterations 4
GAMG:  Solving for ILambda_1_0, Initial residual = 0.00265629553, Final residual = 1.42910215e-05, No Iterations 3
GAMG:  Solving for ILambda_2_0, Initial residual = 0.0029305861, Final residual = 1.48551896e-05, No Iterations 3
GAMG:  Solving for ILambda_3_0, Initial residual = 0.00316162269, Final residual = 1.2791855e-05, No Iterations 3
GAMG:  Solving for ILambda_4_0, Initial residual = 0.00335953333, Final residual = 7.3866088e-06, No Iterations 3
GAMG:  Solving for ILambda_5_0, Initial residual = 0.00339320463, Final residual = 1.01598204e-05, No Iterations 3
GAMG:  Solving for ILambda_6_0, Initial residual = 0.00337444428, Final residual = 1.02603626e-05, No Iterations 3
GAMG:  Solving for ILambda_7_0, Initial residual = 0.00331778264, Final residual = 6.90854144e-06, No Iterations 3
GAMG:  Solving for ILambda_8_0, Initial residual = 0.0031173518, Final residual = 1.37389892e-05, No Iterations 3
GAMG:  Solving for ILambda_9_0, Initial residual = 0.00291176445, Final residual = 1.73535236e-05, No Iterations 3
GAMG:  Solving for ILambda_10_0, Initial residual = 0.002679721, Final residual = 1.95421756e-05, No Iterations 3
GAMG:  Solving for ILambda_11_0, Initial residual = 0.00232942317, Final residual = 1.23946664e-05, No Iterations 4
GAMG:  Solving for ILambda_12_0, Initial residual = 0.0019769018, Final residual = 1.16530365e-05, No Iterations 3
GAMG:  Solving for ILambda_13_0, Initial residual = 0.00235705447, Final residual = 9.86643427e-06, No Iterations 2
GAMG:  Solving for ILambda_14_0, Initial residual = 0.00274862695, Final residual = 6.58626134e-06, No Iterations 2
GAMG:  Solving for ILambda_15_0, Initial residual = 0.00318508466, Final residual = 1.19621046e-05, No Iterations 2
GAMG:  Solving for ILambda_16_0, Initial residual = 0.00341786231, Final residual = 1.78405921e-05, No Iterations 2
GAMG:  Solving for ILambda_17_0, Initial residual = 0.00373434743, Final residual = 8.85609065e-06, No Iterations 3
GAMG:  Solving for ILambda_18_0, Initial residual = 0.00356570286, Final residual = 3.32824651e-05, No Iterations 2
GAMG:  Solving for ILambda_19_0, Initial residual = 0.00315664414, Final residual = 1.36348811e-05, No Iterations 2
GAMG:  Solving for ILambda_20_0, Initial residual = 0.00272999005, Final residual = 1.05788893e-05, No Iterations 2
GAMG:  Solving for ILambda_21_0, Initial residual = 0.00234258648, Final residual = 8.85321312e-06, No Iterations 2
GAMG:  Solving for ILambda_22_0, Initial residual = 0.00206681307, Final residual = 1.67019479e-05, No Iterations 2
GAMG:  Solving for ILambda_23_0, Initial residual = 0.00174701631, Final residual = 1.07018802e-05, No Iterations 3
GAMG:  Solving for ILambda_24_0, Initial residual = 0.00131196164, Final residual = 6.73801059e-06, No Iterations 4
GAMG:  Solving for ILambda_25_0, Initial residual = 0.00189240777, Final residual = 8.3512447e-06, No Iterations 3
GAMG:  Solving for ILambda_26_0, Initial residual = 0.00222254608, Final residual = 1.74090273e-05, No Iterations 2
GAMG:  Solving for ILambda_27_0, Initial residual = 0.00242895344, Final residual = 2.14413068e-05, No Iterations 2
GAMG:  Solving for ILambda_28_0, Initial residual = 0.0026367947, Final residual = 1.96425595e-05, No Iterations 3
GAMG:  Solving for ILambda_29_0, Initial residual = 0.00279182618, Final residual = 2.35147577e-05, No Iterations 4
GAMG:  Solving for ILambda_30_0, Initial residual = 0.00235470717, Final residual = 1.54568062e-05, No Iterations 3
GAMG:  Solving for ILambda_31_0, Initial residual = 0.00192727903, Final residual = 1.52866137e-05, No Iterations 2
GAMG:  Solving for ILambda_32_0, Initial residual = 0.00160760287, Final residual = 1.11900403e-05, No Iterations 2
GAMG:  Solving for ILambda_33_0, Initial residual = 0.00134458216, Final residual = 1.13869436e-05, No Iterations 2
GAMG:  Solving for ILambda_34_0, Initial residual = 0.00115630016, Final residual = 8.91928523e-06, No Iterations 3
GAMG:  Solving for ILambda_35_0, Initial residual = 0.000818745694, Final residual = 7.33540609e-06, No Iterations 4
GAMG:  Solving for ILambda_36_0, Initial residual = 0.000907558067, Final residual = 2.40746584e-06, No Iterations 4
GAMG:  Solving for ILambda_37_0, Initial residual = 0.00110984306, Final residual = 2.30040388e-06, No Iterations 3
GAMG:  Solving for ILambda_38_0, Initial residual = 0.00124984174, Final residual = 7.583199e-06, No Iterations 2
GAMG:  Solving for ILambda_39_0, Initial residual = 0.00132244026, Final residual = 9.95803737e-06, No Iterations 2
GAMG:  Solving for ILambda_40_0, Initial residual = 0.00125794972, Final residual = 1.05019474e-05, No Iterations 2
GAMG:  Solving for ILambda_41_0, Initial residual = 0.00120763993, Final residual = 2.79615857e-06, No Iterations 3
GAMG:  Solving for ILambda_42_0, Initial residual = 0.00108586472, Final residual = 7.33273806e-06, No Iterations 2
GAMG:  Solving for ILambda_43_0, Initial residual = 0.000964501417, Final residual = 3.50593023e-06, No Iterations 2
GAMG:  Solving for ILambda_44_0, Initial residual = 0.000924600705, Final residual = 3.63187995e-06, No Iterations 2
GAMG:  Solving for ILambda_45_0, Initial residual = 0.00084826679, Final residual = 3.74808018e-06, No Iterations 2
GAMG:  Solving for ILambda_46_0, Initial residual = 0.000790265984, Final residual = 8.50224352e-06, No Iterations 2
GAMG:  Solving for ILambda_47_0, Initial residual = 0.000730928742, Final residual = 7.33348586e-06, No Iterations 3
GAMG:  Solving for ILambda_48_0, Initial residual = 0.001082219, Final residual = 7.53053136e-06, No Iterations 3
GAMG:  Solving for ILambda_49_0, Initial residual = 0.00100469072, Final residual = 5.83593423e-06, No Iterations 3
GAMG:  Solving for ILambda_50_0, Initial residual = 0.00109790216, Final residual = 9.92095015e-06, No Iterations 3
GAMG:  Solving for ILambda_51_0, Initial residual = 0.00115668712, Final residual = 1.13799946e-05, No Iterations 3
GAMG:  Solving for ILambda_52_0, Initial residual = 0.00120353508, Final residual = 2.73509247e-06, No Iterations 4
GAMG:  Solving for ILambda_53_0, Initial residual = 0.00130051364, Final residual = 4.7519984e-06, No Iterations 5
GAMG:  Solving for ILambda_54_0, Initial residual = 0.00129809493, Final residual = 3.74462448e-06, No Iterations 5
GAMG:  Solving for ILambda_55_0, Initial residual = 0.00115858447, Final residual = 2.15219708e-06, No Iterations 4
GAMG:  Solving for ILambda_56_0, Initial residual = 0.00114933835, Final residual = 2.61864469e-06, No Iterations 4
GAMG:  Solving for ILambda_57_0, Initial residual = 0.00110685712, Final residual = 8.9256098e-06, No Iterations 3
GAMG:  Solving for ILambda_58_0, Initial residual = 0.00101692071, Final residual = 6.27147192e-06, No Iterations 3
GAMG:  Solving for ILambda_59_0, Initial residual = 0.00106325971, Final residual = 6.75948928e-06, No Iterations 3
Radiation solver iter: 6
GAMG:  Solving for ILambda_0_0, Initial residual = 0.000521959904, Final residual = 7.99494744e-06, No Iterations 4
GAMG:  Solving for ILambda_1_0, Initial residual = 0.000473425539, Final residual = 8.67719846e-06, No Iterations 3
GAMG:  Solving for ILambda_2_0, Initial residual = 0.00051116569, Final residual = 8.87902207e-06, No Iterations 3
GAMG:  Solving for ILambda_3_0, Initial residual = 0.000522142905, Final residual = 6.01428416e-06, No Iterations 3
GAMG:  Solving for ILambda_4_0, Initial residual = 0.000531861579, Final residual = 3.36760563e-06, No Iterations 3
GAMG:  Solving for ILambda_5_0, Initial residual = 0.00052507576, Final residual = 4.40472775e-06, No Iterations 3
GAMG:  Solving for ILambda_6_0, Initial residual = 0.000536027807, Final residual = 4.65753406e-06, No Iterations 3
GAMG:  Solving for ILambda_7_0, Initial residual = 0.000540708472, Final residual = 3.0094808e-06, No Iterations 3
GAMG:  Solving for ILambda_8_0, Initial residual = 0.00053768838, Final residual = 5.88946026e-06, No Iterations 3
GAMG:  Solving for ILambda_9_0, Initial residual = 0.000541720935, Final residual = 2.34915562e-06, No Iterations 4
GAMG:  Solving for ILambda_10_0, Initial residual = 0.000526681735, Final residual = 2.76409499e-06, No Iterations 4
GAMG:  Solving for ILambda_11_0, Initial residual = 0.000490320016, Final residual = 8.02833377e-06, No Iterations 4
GAMG:  Solving for ILambda_12_0, Initial residual = 0.000284030165, Final residual = 9.86189731e-06, No Iterations 2
GAMG:  Solving for ILambda_13_0, Initial residual = 0.000374585695, Final residual = 2.52922198e-06, No Iterations 2
GAMG:  Solving for ILambda_14_0, Initial residual = 0.000429789265, Final residual = 1.84915892e-06, No Iterations 2
GAMG:  Solving for ILambda_15_0, Initial residual = 0.000497554151, Final residual = 3.36360781e-06, No Iterations 2
GAMG:  Solving for ILambda_16_0, Initial residual = 0.00055453176, Final residual = 4.7883449e-06, No Iterations 2
GAMG:  Solving for ILambda_17_0, Initial residual = 0.000566402789, Final residual = 9.87005268e-06, No Iterations 2
GAMG:  Solving for ILambda_18_0, Initial residual = 0.000550402498, Final residual = 2.45749938e-06, No Iterations 3
GAMG:  Solving for ILambda_19_0, Initial residual = 0.000478601605, Final residual = 4.75182881e-06, No Iterations 2
GAMG:  Solving for ILambda_20_0, Initial residual = 0.000406770434, Final residual = 3.68806146e-06, No Iterations 2
GAMG:  Solving for ILambda_21_0, Initial residual = 0.00034305681, Final residual = 2.40366466e-06, No Iterations 2
GAMG:  Solving for ILambda_22_0, Initial residual = 0.000303651284, Final residual = 3.00035541e-06, No Iterations 2
GAMG:  Solving for ILambda_23_0, Initial residual = 0.000234371836, Final residual = 8.07830042e-06, No Iterations 2
GAMG:  Solving for ILambda_24_0, Initial residual = 0.000172550186, Final residual = 8.18331395e-06, No Iterations 2
GAMG:  Solving for ILambda_25_0, Initial residual = 0.000237827099, Final residual = 3.70887349e-06, No Iterations 2
GAMG:  Solving for ILambda_26_0, Initial residual = 0.000280667093, Final residual = 3.75919866e-06, No Iterations 2
GAMG:  Solving for ILambda_27_0, Initial residual = 0.00031456845, Final residual = 4.95007042e-06, No Iterations 2
GAMG:  Solving for ILambda_28_0, Initial residual = 0.000337837083, Final residual = 8.26878798e-06, No Iterations 2
GAMG:  Solving for ILambda_29_0, Initial residual = 0.000369622285, Final residual = 7.37648459e-06, No Iterations 3
GAMG:  Solving for ILambda_30_0, Initial residual = 0.000328163916, Final residual = 7.37333165e-06, No Iterations 2
GAMG:  Solving for ILambda_31_0, Initial residual = 0.000279962125, Final residual = 2.9858718e-06, No Iterations 2
GAMG:  Solving for ILambda_32_0, Initial residual = 0.000238122116, Final residual = 6.86634312e-06, No Iterations 1
GAMG:  Solving for ILambda_33_0, Initial residual = 0.00020741876, Final residual = 7.8218927e-06, No Iterations 1
GAMG:  Solving for ILambda_34_0, Initial residual = 0.000177775505, Final residual = 4.03170728e-06, No Iterations 2
GAMG:  Solving for ILambda_35_0, Initial residual = 0.000126858964, Final residual = 8.41434156e-06, No Iterations 2
GAMG:  Solving for ILambda_36_0, Initial residual = 0.000152703439, Final residual = 6.34851645e-06, No Iterations 2
GAMG:  Solving for ILambda_37_0, Initial residual = 0.000173965877, Final residual = 9.16462737e-06, No Iterations 1
GAMG:  Solving for ILambda_38_0, Initial residual = 0.000195436141, Final residual = 4.92253559e-06, No Iterations 1
GAMG:  Solving for ILambda_39_0, Initial residual = 0.000210470151, Final residual = 5.03166405e-06, No Iterations 1
GAMG:  Solving for ILambda_40_0, Initial residual = 0.000208201427, Final residual = 6.55824621e-06, No Iterations 1
GAMG:  Solving for ILambda_41_0, Initial residual = 0.000207185981, Final residual = 9.87195028e-06, No Iterations 1
GAMG:  Solving for ILambda_42_0, Initial residual = 0.000211730923, Final residual = 7.33280628e-06, No Iterations 1
GAMG:  Solving for ILambda_43_0, Initial residual = 0.000199790247, Final residual = 4.35551078e-06, No Iterations 1
GAMG:  Solving for ILambda_44_0, Initial residual = 0.000201817808, Final residual = 3.43925962e-06, No Iterations 1
GAMG:  Solving for ILambda_45_0, Initial residual = 0.000189530329, Final residual = 4.17861422e-06, No Iterations 1
GAMG:  Solving for ILambda_46_0, Initial residual = 0.000177121499, Final residual = 8.84130586e-06, No Iterations 1
GAMG:  Solving for ILambda_47_0, Initial residual = 0.000155396771, Final residual = 5.58004831e-06, No Iterations 2
GAMG:  Solving for ILambda_48_0, Initial residual = 0.000254539559, Final residual = 2.8275223e-06, No Iterations 3
GAMG:  Solving for ILambda_49_0, Initial residual = 0.000227979657, Final residual = 2.77500981e-06, No Iterations 3
GAMG:  Solving for ILambda_50_0, Initial residual = 0.000281264736, Final residual = 5.29021557e-06, No Iterations 3
GAMG:  Solving for ILambda_51_0, Initial residual = 0.000314829413, Final residual = 5.91046611e-06, No Iterations 3
GAMG:  Solving for ILambda_52_0, Initial residual = 0.000343702005, Final residual = 8.77033275e-06, No Iterations 3
GAMG:  Solving for ILambda_53_0, Initial residual = 0.000419045394, Final residual = 3.59702738e-06, No Iterations 5
GAMG:  Solving for ILambda_54_0, Initial residual = 0.00042544361, Final residual = 9.56336582e-06, No Iterations 4
GAMG:  Solving for ILambda_55_0, Initial residual = 0.000329052277, Final residual = 6.82815793e-06, No Iterations 3
GAMG:  Solving for ILambda_56_0, Initial residual = 0.00031957059, Final residual = 6.43880181e-06, No Iterations 3
GAMG:  Solving for ILambda_57_0, Initial residual = 0.000308418215, Final residual = 4.87157252e-06, No Iterations 3
GAMG:  Solving for ILambda_58_0, Initial residual = 0.000253008396, Final residual = 3.26234872e-06, No Iterations 3
GAMG:  Solving for ILambda_59_0, Initial residual = 0.000251203011, Final residual = 2.17341222e-06, No Iterations 3
Radiation solver iter: 7
GAMG:  Solving for ILambda_0_0, Initial residual = 0.000273021249, Final residual = 5.71051699e-06, No Iterations 4
GAMG:  Solving for ILambda_1_0, Initial residual = 0.000187978138, Final residual = 5.41125941e-06, No Iterations 3
GAMG:  Solving for ILambda_2_0, Initial residual = 0.000192280439, Final residual = 5.66013526e-06, No Iterations 3
GAMG:  Solving for ILambda_3_0, Initial residual = 0.000176050469, Final residual = 3.09646042e-06, No Iterations 3
GAMG:  Solving for ILambda_4_0, Initial residual = 0.000165218536, Final residual = 8.18057751e-06, No Iterations 2
GAMG:  Solving for ILambda_5_0, Initial residual = 0.000157232691, Final residual = 7.46547222e-06, No Iterations 2
GAMG:  Solving for ILambda_6_0, Initial residual = 0.000159648875, Final residual = 8.15985444e-06, No Iterations 2
GAMG:  Solving for ILambda_7_0, Initial residual = 0.000159353669, Final residual = 5.91443651e-06, No Iterations 2
GAMG:  Solving for ILambda_8_0, Initial residual = 0.000169602572, Final residual = 2.80788814e-06, No Iterations 3
GAMG:  Solving for ILambda_9_0, Initial residual = 0.000190050534, Final residual = 6.66185609e-06, No Iterations 3
GAMG:  Solving for ILambda_10_0, Initial residual = 0.00020831024, Final residual = 8.84425603e-06, No Iterations 3
GAMG:  Solving for ILambda_11_0, Initial residual = 0.0002355378, Final residual = 5.31245919e-06, No Iterations 4
GAMG:  Solving for ILambda_12_0, Initial residual = 8.64565512e-05, Final residual = 2.76985464e-06, No Iterations 2
GAMG:  Solving for ILambda_13_0, Initial residual = 0.000103847158, Final residual = 4.43318178e-06, No Iterations 1
GAMG:  Solving for ILambda_14_0, Initial residual = 0.000119086114, Final residual = 2.92015348e-06, No Iterations 1
GAMG:  Solving for ILambda_15_0, Initial residual = 0.000138416414, Final residual = 4.29616957e-06, No Iterations 1
GAMG:  Solving for ILambda_16_0, Initial residual = 0.000155432888, Final residual = 6.91100719e-06, No Iterations 1
GAMG:  Solving for ILambda_17_0, Initial residual = 0.000168859647, Final residual = 2.55271747e-06, No Iterations 2
GAMG:  Solving for ILambda_18_0, Initial residual = 0.000155279289, Final residual = 8.96399977e-06, No Iterations 1
GAMG:  Solving for ILambda_19_0, Initial residual = 0.000145441592, Final residual = 5.89536172e-06, No Iterations 1
GAMG:  Solving for ILambda_20_0, Initial residual = 0.000125667699, Final residual = 4.04205831e-06, No Iterations 1
GAMG:  Solving for ILambda_21_0, Initial residual = 0.000106178343, Final residual = 3.50567332e-06, No Iterations 1
GAMG:  Solving for ILambda_22_0, Initial residual = 9.18136886e-05, Final residual = 5.18566278e-06, No Iterations 1
GAMG:  Solving for ILambda_23_0, Initial residual = 7.64968738e-05, Final residual = 2.34425042e-06, No Iterations 2
GAMG:  Solving for ILambda_24_0, Initial residual = 5.81767478e-05, Final residual = 2.73796017e-06, No Iterations 2
GAMG:  Solving for ILambda_25_0, Initial residual = 7.44887609e-05, Final residual = 4.24716289e-06, No Iterations 1
GAMG:  Solving for ILambda_26_0, Initial residual = 8.53875996e-05, Final residual = 2.97287979e-06, No Iterations 1
GAMG:  Solving for ILambda_27_0, Initial residual = 9.51395387e-05, Final residual = 4.13481124e-06, No Iterations 1
GAMG:  Solving for ILambda_28_0, Initial residual = 0.000104365752, Final residual = 7.53126582e-06, No Iterations 1
GAMG:  Solving for ILambda_29_0, Initial residual = 0.000108719177, Final residual = 4.83104597e-06, No Iterations 2
GAMG:  Solving for ILambda_30_0, Initial residual = 9.30465042e-05, Final residual = 7.38429093e-06, No Iterations 1
GAMG:  Solving for ILambda_31_0, Initial residual = 7.29808288e-05, Final residual = 3.383359e-06, No Iterations 1
GAMG:  Solving for ILambda_32_0, Initial residual = 6.51629619e-05, Final residual = 3.28540038e-06, No Iterations 1
GAMG:  Solving for ILambda_33_0, Initial residual = 5.72556474e-05, Final residual = 3.43530008e-06, No Iterations 1
GAMG:  Solving for ILambda_34_0, Initial residual = 4.64911067e-05, Final residual = 4.10196566e-06, No Iterations 1
GAMG:  Solving for ILambda_35_0, Initial residual = 3.82715539e-05, Final residual = 8.66467093e-06, No Iterations 1
GAMG:  Solving for ILambda_36_0, Initial residual = 3.65674292e-05, Final residual = 5.46447444e-06, No Iterations 1
[...]
room_SIDE1
    y+ : min = 0, max = 0, average = 0
    y : min = 0.000544684643, max = 0.0025, average = 0.00234602486
manikin
    y+ : min = 0, max = 0, average = 0
    y : min = 4.97449872e-05, max = 0.00255854003, average = 0.000292020944

forceCoeffs forceCoeffs1 output:
    Cm    = -4499.86349
    Cd    = -99.5598637
    Cl    = -8664.87679
    Cl(f) = -8832.30188
    Cl(r) = 167.425092

Time = 72

ExecutionTime = 771.26 s  ClockTime = 772 s

wallHeatFlux wallHeatFlux output:

Wall heat fluxes [W]
room_SIDE2
    convective: 0
    radiative:  -19.851498
    total:      -19.851498
    Temperature : min = 293.55, max = 293.55, average = 293.55
room_FLOOR
    convective: 0
    radiative:  -27.9846807
    total:      -27.9846807
    Temperature : min = 293.55, max = 293.55, average = 293.55
room_CEILING
    convective: 0
    radiative:  -14.6899145
    total:      -14.6899145
    Temperature : min = 293.55, max = 293.55, average = 293.55
room_BACK
    convective: 0
    radiative:  -7.51546798
    total:      -7.51546798
    Temperature : min = 293.55, max = 293.55, average = 293.55
room_SIDE1
    convective: 0
    radiative:  -19.660538
    total:      -19.660538
    Temperature : min = 293.55, max = 293.55, average = 293.55
manikin
    convective: 1918.61557
    radiative:  100.411798
    total:      2019.02736
    Temperature : min = 307.15, max = 307.15, average = 307.15

yPlusRAS yplusRAS output:
    patch room_SIDE2 y+ : min = 0.628826338, max = 2.88619683, average = 2.70844379
    patch room_FLOOR y+ : min = 0.160969906, max = 2.88619649, average = 1.86929758
    patch room_CEILING y+ : min = 0.747111756, max = 2.8861965, average = 2.67122461
    patch room_BACK y+ : min = 1.00747525, max = 6.33815513, average = 1.42396152
    patch room_SIDE1 y+ : min = 0.628826834, max = 2.88619682, average = 2.70843579
    patch manikin y+ : min = 0.0548866625, max = 2.82299245, average = 0.322204425

yPlusRASLowRe yplusRASLowRe output:
room_SIDE2
    y+ : min = 0, max = 0, average = 0
    y : min = 0.000544684214, max = 0.00250000001, average = 0.00234603179
room_FLOOR
    y+ : min = 0, max = 0, average = 0
    y : min = 0.000139430812, max = 0.00249999971, average = 0.00161917022
room_CEILING
    y+ : min = 0, max = 0, average = 0
    y : min = 0.000647142072, max = 0.00249999973, average = 0.00231379284
room_BACK
    y+ : min = 0, max = 0, average = 0
    y : min = 0.000872666798, max = 0.00549005797, average = 0.00123342378
room_SIDE1
    y+ : min = 0, max = 0, average = 0
    y : min = 0.000544684643, max = 0.0025, average = 0.00234602486
manikin
    y+ : min = 0, max = 0, average = 0
    y : min = 4.97449872e-05, max = 0.00255854003, average = 0.000292020944

forceCoeffs forceCoeffs1 output:
    Cm    = -4499.86349
    Cd    = -99.5598637
    Cl    = -8664.87679
    Cl(f) = -8832.30188
    Cl(r) = 167.425092

Time = 73

ExecutionTime = 772.25 s  ClockTime = 773 s

wallHeatFlux wallHeatFlux output:

Wall heat fluxes [W]
room_SIDE2
    convective: 0
    radiative:  -19.851498
    total:      -19.851498
    Temperature : min = 293.55, max = 293.55, average = 293.55
room_FLOOR
    convective: 0
    radiative:  -27.9846807
    total:      -27.9846807
    Temperature : min = 293.55, max = 293.55, average = 293.55
room_CEILING
    convective: 0
    radiative:  -14.6899145
    total:      -14.6899145
    Temperature : min = 293.55, max = 293.55, average = 293.55
room_BACK
    convective: 0
    radiative:  -7.51546798
    total:      -7.51546798
    Temperature : min = 293.55, max = 293.55, average = 293.55
room_SIDE1
    convective: 0
    radiative:  -19.660538
    total:      -19.660538
    Temperature : min = 293.55, max = 293.55, average = 293.55
manikin
    convective: 1918.61557
    radiative:  100.411798
    total:      2019.02736
    Temperature : min = 307.15, max = 307.15, average = 307.15

yPlusRAS yplusRAS output:
    patch room_SIDE2 y+ : min = 0.628826338, max = 2.88619683, average = 2.70844379
    patch room_FLOOR y+ : min = 0.160969906, max = 2.88619649, average = 1.86929758
    patch room_CEILING y+ : min = 0.747111756, max = 2.8861965, average = 2.67122461
    patch room_BACK y+ : min = 1.00747525, max = 6.33815513, average = 1.42396152
    patch room_SIDE1 y+ : min = 0.628826834, max = 2.88619682, average = 2.70843579
    patch manikin y+ : min = 0.0548866625, max = 2.82299245, average = 0.322204425

yPlusRASLowRe yplusRASLowRe output:
room_SIDE2
    y+ : min = 0, max = 0, average = 0
    y : min = 0.000544684214, max = 0.00250000001, average = 0.00234603179
room_FLOOR
    y+ : min = 0, max = 0, average = 0
    y : min = 0.000139430812, max = 0.00249999971, average = 0.00161917022
room_CEILING
    y+ : min = 0, max = 0, average = 0
    y : min = 0.000647142072, max = 0.00249999973, average = 0.00231379284
room_BACK
    y+ : min = 0, max = 0, average = 0
    y : min = 0.000872666798, max = 0.00549005797, average = 0.00123342378
room_SIDE1
    y+ : min = 0, max = 0, average = 0
    y : min = 0.000544684643, max = 0.0025, average = 0.00234602486
manikin
    y+ : min = 0, max = 0, average = 0
    y : min = 4.97449872e-05, max = 0.00255854003, average = 0.000292020944

forceCoeffs forceCoeffs1 output:
    Cm    = -4499.86349
    Cd    = -99.5598637
    Cl    = -8664.87679
    Cl(f) = -8832.30188
    Cl(r) = 167.425092

Time = 74

ExecutionTime = 773.08 s  ClockTime = 774 s

wallHeatFlux wallHeatFlux output:

Wall heat fluxes [W]
room_SIDE2
    convective: 0
    radiative:  -19.851498
    total:      -19.851498
    Temperature : min = 293.55, max = 293.55, average = 293.55
room_FLOOR
    convective: 0
    radiative:  -27.9846807
    total:      -27.9846807
    Temperature : min = 293.55, max = 293.55, average = 293.55
room_CEILING
    convective: 0
    radiative:  -14.6899145
    total:      -14.6899145
    Temperature : min = 293.55, max = 293.55, average = 293.55
room_BACK
    convective: 0
    radiative:  -7.51546798
    total:      -7.51546798
    Temperature : min = 293.55, max = 293.55, average = 293.55
room_SIDE1
    convective: 0
    radiative:  -19.660538
    total:      -19.660538
    Temperature : min = 293.55, max = 293.55, average = 293.55
manikin
    convective: 1918.61557
    radiative:  100.411798
    total:      2019.02736
    Temperature : min = 307.15, max = 307.15, average = 307.15

yPlusRAS yplusRAS output:
    patch room_SIDE2 y+ : min = 0.628826338, max = 2.88619683, average = 2.70844379
    patch room_FLOOR y+ : min = 0.160969906, max = 2.88619649, average = 1.86929758
    patch room_CEILING y+ : min = 0.747111756, max = 2.8861965, average = 2.67122461
    patch room_BACK y+ : min = 1.00747525, max = 6.33815513, average = 1.42396152
    patch room_SIDE1 y+ : min = 0.628826834, max = 2.88619682, average = 2.70843579
    patch manikin y+ : min = 0.0548866625, max = 2.82299245, average = 0.322204425

yPlusRASLowRe yplusRASLowRe output:
room_SIDE2
    y+ : min = 0, max = 0, average = 0
    y : min = 0.000544684214, max = 0.00250000001, average = 0.00234603179
room_FLOOR
    y+ : min = 0, max = 0, average = 0
    y : min = 0.000139430812, max = 0.00249999971, average = 0.00161917022
room_CEILING
    y+ : min = 0, max = 0, average = 0
    y : min = 0.000647142072, max = 0.00249999973, average = 0.00231379284
room_BACK
    y+ : min = 0, max = 0, average = 0
    y : min = 0.000872666798, max = 0.00549005797, average = 0.00123342378
room_SIDE1
    y+ : min = 0, max = 0, average = 0
    y : min = 0.000544684643, max = 0.0025, average = 0.00234602486
manikin
    y+ : min = 0, max = 0, average = 0
    y : min = 4.97449872e-05, max = 0.00255854003, average = 0.000292020944

forceCoeffs forceCoeffs1 output:
    Cm    = -4499.86349
    Cd    = -99.5598637
    Cl    = -8664.87679
    Cl(f) = -8832.30188
    Cl(r) = 167.425092

Time = 75

ExecutionTime = 773.93 s  ClockTime = 775 s

wallHeatFlux wallHeatFlux output:

Wall heat fluxes [W]
room_SIDE2
    convective: 0
    radiative:  -19.851498
    total:      -19.851498
    Temperature : min = 293.55, max = 293.55, average = 293.55
room_FLOOR
    convective: 0
    radiative:  -27.9846807
    total:      -27.9846807
    Temperature : min = 293.55, max = 293.55, average = 293.55
room_CEILING
    convective: 0
    radiative:  -14.6899145
    total:      -14.6899145
    Temperature : min = 293.55, max = 293.55, average = 293.55
room_BACK
    convective: 0
    radiative:  -7.51546798
    total:      -7.51546798
    Temperature : min = 293.55, max = 293.55, average = 293.55
room_SIDE1
    convective: 0
    radiative:  -19.660538
    total:      -19.660538
    Temperature : min = 293.55, max = 293.55, average = 293.55
manikin
    convective: 1918.61557
    radiative:  100.411798
    total:      2019.02736
    Temperature : min = 307.15, max = 307.15, average = 307.15

yPlusRAS yplusRAS output:
    patch room_SIDE2 y+ : min = 0.628826338, max = 2.88619683, average = 2.70844379
    patch room_FLOOR y+ : min = 0.160969906, max = 2.88619649, average = 1.86929758
    patch room_CEILING y+ : min = 0.747111756, max = 2.8861965, average = 2.67122461
    patch room_BACK y+ : min = 1.00747525, max = 6.33815513, average = 1.42396152
    patch room_SIDE1 y+ : min = 0.628826834, max = 2.88619682, average = 2.70843579
    patch manikin y+ : min = 0.0548866625, max = 2.82299245, average = 0.322204425

yPlusRASLowRe yplusRASLowRe output:
room_SIDE2
    y+ : min = 0, max = 0, average = 0
    y : min = 0.000544684214, max = 0.00250000001, average = 0.00234603179
room_FLOOR
    y+ : min = 0, max = 0, average = 0
    y : min = 0.000139430812, max = 0.00249999971, average = 0.00161917022
room_CEILING
    y+ : min = 0, max = 0, average = 0
    y : min = 0.000647142072, max = 0.00249999973, average = 0.00231379284
room_BACK
    y+ : min = 0, max = 0, average = 0
    y : min = 0.000872666798, max = 0.00549005797, average = 0.00123342378
room_SIDE1
    y+ : min = 0, max = 0, average = 0
    y : min = 0.000544684643, max = 0.0025, average = 0.00234602486
manikin
    y+ : min = 0, max = 0, average = 0
    y : min = 4.97449872e-05, max = 0.00255854003, average = 0.000292020944

forceCoeffs forceCoeffs1 output:
    Cm    = -4499.86349
    Cd    = -99.5598637
    Cl    = -8664.87679
    Cl(f) = -8832.30188
    Cl(r) = 167.425092

Time = 76

ExecutionTime = 774.83 s  ClockTime = 776 s

wallHeatFlux wallHeatFlux output:

Wall heat fluxes [W]
room_SIDE2
    convective: 0
    radiative:  -19.851498
    total:      -19.851498
    Temperature : min = 293.55, max = 293.55, average = 293.55
room_FLOOR
    convective: 0
    radiative:  -27.9846807
    total:      -27.9846807
    Temperature : min = 293.55, max = 293.55, average = 293.55
room_CEILING
    convective: 0
    radiative:  -14.6899145
    total:      -14.6899145
    Temperature : min = 293.55, max = 293.55, average = 293.55
room_BACK
    convective: 0
    radiative:  -7.51546798
    total:      -7.51546798
    Temperature : min = 293.55, max = 293.55, average = 293.55
room_SIDE1
    convective: 0
    radiative:  -19.660538
    total:      -19.660538
    Temperature : min = 293.55, max = 293.55, average = 293.55
manikin
    convective: 1918.61557
    radiative:  100.411798
    total:      2019.02736
    Temperature : min = 307.15, max = 307.15, average = 307.15

yPlusRAS yplusRAS output:
    patch room_SIDE2 y+ : min = 0.628826338, max = 2.88619683, average = 2.70844379
    patch room_FLOOR y+ : min = 0.160969906, max = 2.88619649, average = 1.86929758
    patch room_CEILING y+ : min = 0.747111756, max = 2.8861965, average = 2.67122461
    patch room_BACK y+ : min = 1.00747525, max = 6.33815513, average = 1.42396152
    patch room_SIDE1 y+ : min = 0.628826834, max = 2.88619682, average = 2.70843579
    patch manikin y+ : min = 0.0548866625, max = 2.82299245, average = 0.322204425

yPlusRASLowRe yplusRASLowRe output:
room_SIDE2
    y+ : min = 0, max = 0, average = 0
    y : min = 0.000544684214, max = 0.00250000001, average = 0.00234603179
room_FLOOR
    y+ : min = 0, max = 0, average = 0
    y : min = 0.000139430812, max = 0.00249999971, average = 0.00161917022
room_CEILING
    y+ : min = 0, max = 0, average = 0
    y : min = 0.000647142072, max = 0.00249999973, average = 0.00231379284
room_BACK
    y+ : min = 0, max = 0, average = 0
    y : min = 0.000872666798, max = 0.00549005797, average = 0.00123342378
room_SIDE1
    y+ : min = 0, max = 0, average = 0
    y : min = 0.000544684643, max = 0.0025, average = 0.00234602486
manikin
    y+ : min = 0, max = 0, average = 0
    y : min = 4.97449872e-05, max = 0.00255854003, average = 0.000292020944

forceCoeffs forceCoeffs1 output:
    Cm    = -4499.86349
    Cd    = -99.5598637
    Cl    = -8664.87679
    Cl(f) = -8832.30188
    Cl(r) = 167.425092

Time = 77

ExecutionTime = 775.68 s  ClockTime = 777 s

wallHeatFlux wallHeatFlux output:

Wall heat fluxes [W]
room_SIDE2
    convective: 0
    radiative:  -19.851498
    total:      -19.851498
    Temperature : min = 293.55, max = 293.55, average = 293.55
room_FLOOR
    convective: 0
    radiative:  -27.9846807
    total:      -27.9846807
    Temperature : min = 293.55, max = 293.55, average = 293.55
room_CEILING
    convective: 0
    radiative:  -14.6899145
    total:      -14.6899145
    Temperature : min = 293.55, max = 293.55, average = 293.55
room_BACK
    convective: 0
    radiative:  -7.51546798
    total:      -7.51546798
    Temperature : min = 293.55, max = 293.55, average = 293.55
room_SIDE1
    convective: 0
    radiative:  -19.660538
    total:      -19.660538
    Temperature : min = 293.55, max = 293.55, average = 293.55
manikin
    convective: 1918.61557
    radiative:  100.411798
    total:      2019.02736
    Temperature : min = 307.15, max = 307.15, average = 307.15

yPlusRAS yplusRAS output:
    patch room_SIDE2 y+ : min = 0.628826338, max = 2.88619683, average = 2.70844379
    patch room_FLOOR y+ : min = 0.160969906, max = 2.88619649, average = 1.86929758
    patch room_CEILING y+ : min = 0.747111756, max = 2.8861965, average = 2.67122461
    patch room_BACK y+ : min = 1.00747525, max = 6.33815513, average = 1.42396152
    patch room_SIDE1 y+ : min = 0.628826834, max = 2.88619682, average = 2.70843579
    patch manikin y+ : min = 0.0548866625, max = 2.82299245, average = 0.322204425

yPlusRASLowRe yplusRASLowRe output:
room_SIDE2
    y+ : min = 0, max = 0, average = 0
    y : min = 0.000544684214, max = 0.00250000001, average = 0.00234603179
room_FLOOR
    y+ : min = 0, max = 0, average = 0
    y : min = 0.000139430812, max = 0.00249999971, average = 0.00161917022
room_CEILING
    y+ : min = 0, max = 0, average = 0
    y : min = 0.000647142072, max = 0.00249999973, average = 0.00231379284
room_BACK
    y+ : min = 0, max = 0, average = 0
    y : min = 0.000872666798, max = 0.00549005797, average = 0.00123342378
room_SIDE1
    y+ : min = 0, max = 0, average = 0
    y : min = 0.000544684643, max = 0.0025, average = 0.00234602486
manikin
    y+ : min = 0, max = 0, average = 0
    y : min = 4.97449872e-05, max = 0.00255854003, average = 0.000292020944

forceCoeffs forceCoeffs1 output:
    Cm    = -4499.86349
    Cd    = -99.5598637
    Cl    = -8664.87679
    Cl(f) = -8832.30188
    Cl(r) = 167.425092

Time = 78

ExecutionTime = 776.51 s  ClockTime = 778 s

wallHeatFlux wallHeatFlux output:

Wall heat fluxes [W]
room_SIDE2
    convective: 0
    radiative:  -19.851498
    total:      -19.851498
    Temperature : min = 293.55, max = 293.55, average = 293.55
room_FLOOR
    convective: 0
    radiative:  -27.9846807
    total:      -27.9846807
    Temperature : min = 293.55, max = 293.55, average = 293.55
room_CEILING
    convective: 0
    radiative:  -14.6899145
    total:      -14.6899145
    Temperature : min = 293.55, max = 293.55, average = 293.55
room_BACK
    convective: 0
    radiative:  -7.51546798
    total:      -7.51546798
    Temperature : min = 293.55, max = 293.55, average = 293.55
room_SIDE1
    convective: 0
    radiative:  -19.660538
    total:      -19.660538
    Temperature : min = 293.55, max = 293.55, average = 293.55
manikin
    convective: 1918.61557
    radiative:  100.411798
    total:      2019.02736
    Temperature : min = 307.15, max = 307.15, average = 307.15

yPlusRAS yplusRAS output:
    patch room_SIDE2 y+ : min = 0.628826338, max = 2.88619683, average = 2.70844379
    patch room_FLOOR y+ : min = 0.160969906, max = 2.88619649, average = 1.86929758
    patch room_CEILING y+ : min = 0.747111756, max = 2.8861965, average = 2.67122461
    patch room_BACK y+ : min = 1.00747525, max = 6.33815513, average = 1.42396152
    patch room_SIDE1 y+ : min = 0.628826834, max = 2.88619682, average = 2.70843579
    patch manikin y+ : min = 0.0548866625, max = 2.82299245, average = 0.322204425

yPlusRASLowRe yplusRASLowRe output:
room_SIDE2
    y+ : min = 0, max = 0, average = 0
    y : min = 0.000544684214, max = 0.00250000001, average = 0.00234603179
room_FLOOR
    y+ : min = 0, max = 0, average = 0
    y : min = 0.000139430812, max = 0.00249999971, average = 0.00161917022
room_CEILING
    y+ : min = 0, max = 0, average = 0
    y : min = 0.000647142072, max = 0.00249999973, average = 0.00231379284
room_BACK
    y+ : min = 0, max = 0, average = 0
    y : min = 0.000872666798, max = 0.00549005797, average = 0.00123342378
room_SIDE1
    y+ : min = 0, max = 0, average = 0
    y : min = 0.000544684643, max = 0.0025, average = 0.00234602486
manikin
    y+ : min = 0, max = 0, average = 0
    y : min = 4.97449872e-05, max = 0.00255854003, average = 0.000292020944

forceCoeffs forceCoeffs1 output:
    Cm    = -4499.86349
    Cd    = -99.5598637
    Cl    = -8664.87679
    Cl(f) = -8832.30188
    Cl(r) = 167.425092

Time = 79

ExecutionTime = 777.43 s  ClockTime = 778 s

wallHeatFlux wallHeatFlux output:

Wall heat fluxes [W]
room_SIDE2
    convective: 0
    radiative:  -19.851498
    total:      -19.851498
    Temperature : min = 293.55, max = 293.55, average = 293.55
room_FLOOR
    convective: 0
    radiative:  -27.9846807
    total:      -27.9846807
    Temperature : min = 293.55, max = 293.55, average = 293.55
room_CEILING
    convective: 0
    radiative:  -14.6899145
    total:      -14.6899145
    Temperature : min = 293.55, max = 293.55, average = 293.55
room_BACK
    convective: 0
    radiative:  -7.51546798
    total:      -7.51546798
    Temperature : min = 293.55, max = 293.55, average = 293.55
room_SIDE1
    convective: 0
    radiative:  -19.660538
    total:      -19.660538
    Temperature : min = 293.55, max = 293.55, average = 293.55
manikin
    convective: 1918.61557
    radiative:  100.411798
    total:      2019.02736
    Temperature : min = 307.15, max = 307.15, average = 307.15

yPlusRAS yplusRAS output:
    patch room_SIDE2 y+ : min = 0.628826338, max = 2.88619683, average = 2.70844379
    patch room_FLOOR y+ : min = 0.160969906, max = 2.88619649, average = 1.86929758
    patch room_CEILING y+ : min = 0.747111756, max = 2.8861965, average = 2.67122461
    patch room_BACK y+ : min = 1.00747525, max = 6.33815513, average = 1.42396152
    patch room_SIDE1 y+ : min = 0.628826834, max = 2.88619682, average = 2.70843579
    patch manikin y+ : min = 0.0548866625, max = 2.82299245, average = 0.322204425

yPlusRASLowRe yplusRASLowRe output:
room_SIDE2
    y+ : min = 0, max = 0, average = 0
    y : min = 0.000544684214, max = 0.00250000001, average = 0.00234603179
room_FLOOR
    y+ : min = 0, max = 0, average = 0
    y : min = 0.000139430812, max = 0.00249999971, average = 0.00161917022
room_CEILING
    y+ : min = 0, max = 0, average = 0
    y : min = 0.000647142072, max = 0.00249999973, average = 0.00231379284
room_BACK
    y+ : min = 0, max = 0, average = 0
    y : min = 0.000872666798, max = 0.00549005797, average = 0.00123342378
room_SIDE1
    y+ : min = 0, max = 0, average = 0
    y : min = 0.000544684643, max = 0.0025, average = 0.00234602486
manikin
    y+ : min = 0, max = 0, average = 0
    y : min = 4.97449872e-05, max = 0.00255854003, average = 0.000292020944

