/*---------------------------------------------------------------------------*\
| =========                 |                                                 |
| \\      /  F ield         | OpenFOAM: The Open Source CFD Toolbox           |
|  \\    /   O peration     | Version:  2.3.1                                 |
|   \\  /    A nd           | Web:      www.OpenFOAM.org                      |
|    \\/     M anipulation  |                                                 |
\*---------------------------------------------------------------------------*/
Build  : 2.3.1-bcfaaa7b8660
Exec   : radiationFoam -parallel
Date   : May 29 2017
Time   : 17:46:07
Host   : "ubuntu"
PID    : 3657
Case   : /home/cong/Desktop/AIVC/Case5
nProcs : 4
Slaves : 
3
(
"ubuntu.3658"
"ubuntu.3659"
"ubuntu.3660"
)

Pstream initialized with:
    floatTransfer      : 0
    nProcsSimpleSum    : 0
    commsType          : nonBlocking
    polling iterations : 0
sigFpe : Enabling floating point exception trapping (FOAM_SIGFPE).
fileModificationChecking : Monitoring run-time modified files using timeStampMaster
allowSystemOperations : Allowing user-supplied system call operations

// * * * * * * * * * * * * * * * * * * * * * * * * * * * * * * * * * * * * * //
Create time

Create mesh for time = 0


Reading g
Reading thermophysical properties

Selecting thermodynamics package 
{
    type            heRhoThermo;
    mixture         pureMixture;
    transport       const;
    thermo          hConst;
    equationOfState perfectGas;
    specie          specie;
    energy          sensibleEnthalpy;
}

Reading field U

Reading/calculating face flux field phi

Creating turbulence model

Selecting RAS turbulence model kOmegaSST
kOmegaSSTCoeffs
{
    alphaK1         0.85;
    alphaK2         1;
    alphaOmega1     0.5;
    alphaOmega2     0.856;
    Prt             1;
    gamma1          0.555555556;
    gamma2          0.44;
    beta1           0.075;
    beta2           0.0828;
    betaStar        0.09;
    a1              0.31;
    b1              1;
    c1              10;
    F3              false;
}

Calculating field g.h

Reading field p_rgh

No finite volume options present

Selecting radiationModel fvDOM
Selecting absorptionEmissionModel none
Selecting scatterModel none
Selecting sootModel none
fvDOM : Allocated 140 rays with average orientation:
	I0 : omega : 	0.0311115477
	I1 : omega : 	0.0311115477
	I2 : omega : 	0.0311115477
	I3 : omega : 	0.0311115477
	I4 : omega : 	0.0311115477
	I5 : omega : 	0.0311115477
	I6 : omega : 	0.0311115477
	I7 : omega : 	0.0311115477
	I8 : omega : 	0.0311115477
	I9 : omega : 	0.0311115477
	I10 : omega : 	0.0311115477
	I11 : omega : 	0.0311115477
	I12 : omega : 	0.0311115477
	I13 : omega : 	0.0311115477
	I14 : omega : 	0.0311115477
	I15 : omega : 	0.0311115477
	I16 : omega : 	0.0311115477
	I17 : omega : 	0.0311115477
	I18 : omega : 	0.0311115477
	I19 : omega : 	0.0311115477
	I20 : omega : 	0.0871726195
	I21 : omega : 	0.0871726195
	I22 : omega : 	0.0871726195
	I23 : omega : 	0.0871726195
	I24 : omega : 	0.0871726195
	I25 : omega : 	0.0871726195
	I26 : omega : 	0.0871726195
	I27 : omega : 	0.0871726195
	I28 : omega : 	0.0871726195
	I29 : omega : 	0.0871726195
	I30 : omega : 	0.0871726195
	I31 : omega : 	0.0871726195
	I32 : omega : 	0.0871726195
	I33 : omega : 	0.0871726195
	I34 : omega : 	0.0871726195
	I35 : omega : 	0.0871726195
	I36 : omega : 	0.0871726195
	I37 : omega : 	0.0871726195
	I38 : omega : 	0.0871726195
	I39 : omega : 	0.0871726195
	I40 : omega : 	0.125968085
	I41 : omega : 	0.125968085
	I42 : omega : 	0.125968085
	I43 : omega : 	0.125968085
	I44 : omega : 	0.125968085
	I45 : omega : 	0.125968085
	I46 : omega : 	0.125968085
	I47 : omega : 	0.125968085
	I48 : omega : 	0.125968085
	I49 : omega : 	0.125968085
	I50 : omega : 	0.125968085
	I51 : omega : 	0.125968085
	I52 : omega : 	0.125968085
	I53 : omega : 	0.125968085
	I54 : omega : 	0.125968085
	I55 : omega : 	0.125968085
	I56 : omega : 	0.125968085
	I57 : omega : 	0.125968085
	I58 : omega : 	0.125968085
	I59 : omega : 	0.125968085
	I60 : omega : 	0.139814026
	I61 : omega : 	0.139814026
	I62 : omega : 	0.139814026
	I63 : omega : 	0.139814026
	I64 : omega : 	0.139814026
	I65 : omega : 	0.139814026
	I66 : omega : 	0.139814026
	I67 : omega : 	0.139814026
	I68 : omega : 	0.139814026
	I69 : omega : 	0.139814026
	I70 : omega : 	0.139814026
	I71 : omega : 	0.139814026
	I72 : omega : 	0.139814026
	I73 : omega : 	0.139814026
	I74 : omega : 	0.139814026
	I75 : omega : 	0.139814026
	I76 : omega : 	0.139814026
	I77 : omega : 	0.139814026
	I78 : omega : 	0.139814026
	I79 : omega : 	0.139814026
	I80 : omega : 	0.125968085
	I81 : omega : 	0.125968085
	I82 : omega : 	0.125968085
	I83 : omega : 	0.125968085
	I84 : omega : 	0.125968085
	I85 : omega : 	0.125968085
	I86 : omega : 	0.125968085
	I87 : omega : 	0.125968085
	I88 : omega : 	0.125968085
	I89 : omega : 	0.125968085
	I90 : omega : 	0.125968085
	I91 : omega : 	0.125968085
	I92 : omega : 	0.125968085
	I93 : omega : 	0.125968085
	I94 : omega : 	0.125968085
	I95 : omega : 	0.125968085
	I96 : omega : 	0.125968085
	I97 : omega : 	0.125968085
	I98 : omega : 	0.125968085
	I99 : omega : 	0.125968085
	I100 : omega : 	0.0871726195
	I101 : omega : 	0.0871726195
	I102 : omega : 	0.0871726195
	I103 : omega : 	0.0871726195
	I104 : omega : 	0.0871726195
	I105 : omega : 	0.0871726195
	I106 : omega : 	0.0871726195
	I107 : omega : 	0.0871726195
	I108 : omega : 	0.0871726195
	I109 : omega : 	0.0871726195
	I110 : omega : 	0.0871726195
	I111 : omega : 	0.0871726195
	I112 : omega : 	0.0871726195
	I113 : omega : 	0.0871726195
	I114 : omega : 	0.0871726195
	I115 : omega : 	0.0871726195
	I116 : omega : 	0.0871726195
	I117 : omega : 	0.0871726195
	I118 : omega : 	0.0871726195
	I119 : omega : 	0.0871726195
	I120 : omega : 	0.0311115477
	I121 : omega : 	0.0311115477
	I122 : omega : 	0.0311115477
	I123 : omega : 	0.0311115477
	I124 : omega : 	0.0311115477
	I125 : omega : 	0.0311115477
	I126 : omega : 	0.0311115477
	I127 : omega : 	0.0311115477
	I128 : omega : 	0.0311115477
	I129 : omega : 	0.0311115477
	I130 : omega : 	0.0311115477
	I131 : omega : 	0.0311115477
	I132 : omega : 	0.0311115477
	I133 : omega : 	0.0311115477
	I134 : omega : 	0.0311115477
	I135 : omega : 	0.0311115477
	I136 : omega : 	0.0311115477
	I137 : omega : 	0.0311115477
	I138 : omega : 	0.0311115477
	I139 : omega : 	0.0311115477


SIMPLE: convergence criteria
    field "(p_rgh|p)"	 tolerance 1e-07
    field U	 tolerance 1e-08
    field h	 tolerance 1e-08
    field "(k|epsilon|omega)"	 tolerance 1e-08


Starting time loop

forceCoeffs forceCoeffs1:
    Not including porosity effects

Time = 1

ExecutionTime = 13.82 s  ClockTime = 14 s

wallHeatFlux wallHeatFlux output:

Wall heat fluxes [W]
room_SIDE2
    convective: 0
    radiative:  -0
    total:      0
    Temperature : min = 293.55, max = 293.55, average = 293.55
room_FLOOR
    convective: 0
    radiative:  -0
    total:      0
    Temperature : min = 293.55, max = 293.55, average = 293.55
room_CEILING
    convective: 0
    radiative:  -0
    total:      0
    Temperature : min = 293.55, max = 293.55, average = 293.55
room_BACK
    convective: 0
    radiative:  -0
    total:      0
    Temperature : min = 293.55, max = 293.55, average = 293.55
room_SIDE1
    convective: 0
    radiative:  -0
    total:      0
    Temperature : min = 293.55, max = 293.55, average = 293.55
manikin
    convective: 1918.61557
    radiative:  -0
    total:      1918.61557
    Temperature : min = 307.15, max = 307.15, average = 307.15

yPlusRAS yplusRAS output:
    patch room_SIDE2 y+ : min = 0.628826338, max = 2.88619683, average = 2.70844379
    patch room_FLOOR y+ : min = 0.160969906, max = 2.88619649, average = 1.86929758
    patch room_CEILING y+ : min = 0.747111756, max = 2.8861965, average = 2.67122461
    patch room_BACK y+ : min = 1.00747525, max = 6.33815513, average = 1.42396152
    patch room_SIDE1 y+ : min = 0.628826834, max = 2.88619682, average = 2.70843579
    patch manikin y+ : min = 0.0548866625, max = 2.82299245, average = 0.322204425

yPlusRASLowRe yplusRASLowRe output:
room_SIDE2
    y+ : min = 0, max = 0, average = 0
    y : min = 0.000544684214, max = 0.00250000001, average = 0.00234603179
room_FLOOR
    y+ : min = 0, max = 0, average = 0
    y : min = 0.000139430812, max = 0.00249999971, average = 0.00161917022
room_CEILING
    y+ : min = 0, max = 0, average = 0
    y : min = 0.000647142072, max = 0.00249999973, average = 0.00231379284
room_BACK
    y+ : min = 0, max = 0, average = 0
    y : min = 0.000872666798, max = 0.00549005797, average = 0.00123342378
room_SIDE1
    y+ : min = 0, max = 0, average = 0
    y : min = 0.000544684643, max = 0.0025, average = 0.00234602486
manikin
    y+ : min = 0, max = 0, average = 0
    y : min = 4.97449872e-05, max = 0.00255854003, average = 0.000292020944

forceCoeffs forceCoeffs1 output:
    Cm    = -4499.86349
    Cd    = -99.5598637
    Cl    = -8664.87679
    Cl(f) = -8832.30188
    Cl(r) = 167.425092

Time = 2

ExecutionTime = 15.46 s  ClockTime = 16 s

wallHeatFlux wallHeatFlux output:

Wall heat fluxes [W]
room_SIDE2
    convective: 0
    radiative:  -0
    total:      0
    Temperature : min = 293.55, max = 293.55, average = 293.55
room_FLOOR
    convective: 0
    radiative:  -0
    total:      0
    Temperature : min = 293.55, max = 293.55, average = 293.55
room_CEILING
    convective: 0
    radiative:  -0
    total:      0
    Temperature : min = 293.55, max = 293.55, average = 293.55
room_BACK
    convective: 0
    radiative:  -0
    total:      0
    Temperature : min = 293.55, max = 293.55, average = 293.55
room_SIDE1
    convective: 0
    radiative:  -0
    total:      0
    Temperature : min = 293.55, max = 293.55, average = 293.55
manikin
    convective: 1918.61557
    radiative:  -0
    total:      1918.61557
    Temperature : min = 307.15, max = 307.15, average = 307.15

yPlusRAS yplusRAS output:
    patch room_SIDE2 y+ : min = 0.628826338, max = 2.88619683, average = 2.70844379
    patch room_FLOOR y+ : min = 0.160969906, max = 2.88619649, average = 1.86929758
    patch room_CEILING y+ : min = 0.747111756, max = 2.8861965, average = 2.67122461
    patch room_BACK y+ : min = 1.00747525, max = 6.33815513, average = 1.42396152
    patch room_SIDE1 y+ : min = 0.628826834, max = 2.88619682, average = 2.70843579
    patch manikin y+ : min = 0.0548866625, max = 2.82299245, average = 0.322204425

yPlusRASLowRe yplusRASLowRe output:
room_SIDE2
    y+ : min = 0, max = 0, average = 0
    y : min = 0.000544684214, max = 0.00250000001, average = 0.00234603179
room_FLOOR
    y+ : min = 0, max = 0, average = 0
    y : min = 0.000139430812, max = 0.00249999971, average = 0.00161917022
room_CEILING
    y+ : min = 0, max = 0, average = 0
    y : min = 0.000647142072, max = 0.00249999973, average = 0.00231379284
room_BACK
    y+ : min = 0, max = 0, average = 0
    y : min = 0.000872666798, max = 0.00549005797, average = 0.00123342378
room_SIDE1
    y+ : min = 0, max = 0, average = 0
    y : min = 0.000544684643, max = 0.0025, average = 0.00234602486
manikin
    y+ : min = 0, max = 0, average = 0
    y : min = 4.97449872e-05, max = 0.00255854003, average = 0.000292020944

forceCoeffs forceCoeffs1 output:
    Cm    = -4499.86349
    Cd    = -99.5598637
    Cl    = -8664.87679
    Cl(f) = -8832.30188
    Cl(r) = 167.425092

Time = 3

ExecutionTime = 16.44 s  ClockTime = 17 s

wallHeatFlux wallHeatFlux output:

Wall heat fluxes [W]
room_SIDE2
    convective: 0
    radiative:  -0
    total:      0
    Temperature : min = 293.55, max = 293.55, average = 293.55
room_FLOOR
    convective: 0
    radiative:  -0
    total:      0
    Temperature : min = 293.55, max = 293.55, average = 293.55
room_CEILING
    convective: 0
    radiative:  -0
    total:      0
    Temperature : min = 293.55, max = 293.55, average = 293.55
room_BACK
    convective: 0
    radiative:  -0
    total:      0
    Temperature : min = 293.55, max = 293.55, average = 293.55
room_SIDE1
    convective: 0
    radiative:  -0
    total:      0
    Temperature : min = 293.55, max = 293.55, average = 293.55
manikin
    convective: 1918.61557
    radiative:  -0
    total:      1918.61557
    Temperature : min = 307.15, max = 307.15, average = 307.15

yPlusRAS yplusRAS output:
    patch room_SIDE2 y+ : min = 0.628826338, max = 2.88619683, average = 2.70844379
    patch room_FLOOR y+ : min = 0.160969906, max = 2.88619649, average = 1.86929758
    patch room_CEILING y+ : min = 0.747111756, max = 2.8861965, average = 2.67122461
    patch room_BACK y+ : min = 1.00747525, max = 6.33815513, average = 1.42396152
    patch room_SIDE1 y+ : min = 0.628826834, max = 2.88619682, average = 2.70843579
    patch manikin y+ : min = 0.0548866625, max = 2.82299245, average = 0.322204425

yPlusRASLowRe yplusRASLowRe output:
room_SIDE2
    y+ : min = 0, max = 0, average = 0
    y : min = 0.000544684214, max = 0.00250000001, average = 0.00234603179
room_FLOOR
    y+ : min = 0, max = 0, average = 0
    y : min = 0.000139430812, max = 0.00249999971, average = 0.00161917022
room_CEILING
    y+ : min = 0, max = 0, average = 0
    y : min = 0.000647142072, max = 0.00249999973, average = 0.00231379284
room_BACK
    y+ : min = 0, max = 0, average = 0
    y : min = 0.000872666798, max = 0.00549005797, average = 0.00123342378
room_SIDE1
    y+ : min = 0, max = 0, average = 0
    y : min = 0.000544684643, max = 0.0025, average = 0.00234602486
manikin
    y+ : min = 0, max = 0, average = 0
    y : min = 4.97449872e-05, max = 0.00255854003, average = 0.000292020944

forceCoeffs forceCoeffs1 output:
    Cm    = -4499.86349
    Cd    = -99.5598637
    Cl    = -8664.87679
    Cl(f) = -8832.30188
    Cl(r) = 167.425092

Time = 4

ExecutionTime = 17.36 s  ClockTime = 17 s

wallHeatFlux wallHeatFlux output:

Wall heat fluxes [W]
room_SIDE2
    convective: 0
    radiative:  -0
    total:      0
    Temperature : min = 293.55, max = 293.55, average = 293.55
room_FLOOR
    convective: 0
    radiative:  -0
    total:      0
    Temperature : min = 293.55, max = 293.55, average = 293.55
room_CEILING
    convective: 0
    radiative:  -0
    total:      0
    Temperature : min = 293.55, max = 293.55, average = 293.55
room_BACK
    convective: 0
    radiative:  -0
    total:      0
    Temperature : min = 293.55, max = 293.55, average = 293.55
room_SIDE1
    convective: 0
    radiative:  -0
    total:      0
    Temperature : min = 293.55, max = 293.55, average = 293.55
manikin
    convective: 1918.61557
    radiative:  -0
    total:      1918.61557
    Temperature : min = 307.15, max = 307.15, average = 307.15

yPlusRAS yplusRAS output:
    patch room_SIDE2 y+ : min = 0.628826338, max = 2.88619683, average = 2.70844379
    patch room_FLOOR y+ : min = 0.160969906, max = 2.88619649, average = 1.86929758
    patch room_CEILING y+ : min = 0.747111756, max = 2.8861965, average = 2.67122461
    patch room_BACK y+ : min = 1.00747525, max = 6.33815513, average = 1.42396152
    patch room_SIDE1 y+ : min = 0.628826834, max = 2.88619682, average = 2.70843579
    patch manikin y+ : min = 0.0548866625, max = 2.82299245, average = 0.322204425

yPlusRASLowRe yplusRASLowRe output:
room_SIDE2
    y+ : min = 0, max = 0, average = 0
    y : min = 0.000544684214, max = 0.00250000001, average = 0.00234603179
room_FLOOR
    y+ : min = 0, max = 0, average = 0
    y : min = 0.000139430812, max = 0.00249999971, average = 0.00161917022
room_CEILING
    y+ : min = 0, max = 0, average = 0
    y : min = 0.000647142072, max = 0.00249999973, average = 0.00231379284
room_BACK
    y+ : min = 0, max = 0, average = 0
    y : min = 0.000872666798, max = 0.00549005797, average = 0.00123342378
room_SIDE1
    y+ : min = 0, max = 0, average = 0
    y : min = 0.000544684643, max = 0.0025, average = 0.00234602486
manikin
    y+ : min = 0, max = 0, average = 0
    y : min = 4.97449872e-05, max = 0.00255854003, average = 0.000292020944

forceCoeffs forceCoeffs1 output:
    Cm    = -4499.86349
    Cd    = -99.5598637
    Cl    = -8664.87679
    Cl(f) = -8832.30188
    Cl(r) = 167.425092

Time = 5

ExecutionTime = 18.28 s  ClockTime = 18 s

wallHeatFlux wallHeatFlux output:

Wall heat fluxes [W]
room_SIDE2
    convective: 0
    radiative:  -0
    total:      0
    Temperature : min = 293.55, max = 293.55, average = 293.55
room_FLOOR
    convective: 0
    radiative:  -0
    total:      0
    Temperature : min = 293.55, max = 293.55, average = 293.55
room_CEILING
    convective: 0
    radiative:  -0
    total:      0
    Temperature : min = 293.55, max = 293.55, average = 293.55
room_BACK
    convective: 0
    radiative:  -0
    total:      0
    Temperature : min = 293.55, max = 293.55, average = 293.55
room_SIDE1
    convective: 0
    radiative:  -0
    total:      0
    Temperature : min = 293.55, max = 293.55, average = 293.55
manikin
    convective: 1918.61557
    radiative:  -0
    total:      1918.61557
    Temperature : min = 307.15, max = 307.15, average = 307.15

yPlusRAS yplusRAS output:
    patch room_SIDE2 y+ : min = 0.628826338, max = 2.88619683, average = 2.70844379
    patch room_FLOOR y+ : min = 0.160969906, max = 2.88619649, average = 1.86929758
    patch room_CEILING y+ : min = 0.747111756, max = 2.8861965, average = 2.67122461
    patch room_BACK y+ : min = 1.00747525, max = 6.33815513, average = 1.42396152
    patch room_SIDE1 y+ : min = 0.628826834, max = 2.88619682, average = 2.70843579
    patch manikin y+ : min = 0.0548866625, max = 2.82299245, average = 0.322204425

yPlusRASLowRe yplusRASLowRe output:
room_SIDE2
    y+ : min = 0, max = 0, average = 0
    y : min = 0.000544684214, max = 0.00250000001, average = 0.00234603179
room_FLOOR
    y+ : min = 0, max = 0, average = 0
    y : min = 0.000139430812, max = 0.00249999971, average = 0.00161917022
room_CEILING
    y+ : min = 0, max = 0, average = 0
    y : min = 0.000647142072, max = 0.00249999973, average = 0.00231379284
room_BACK
    y+ : min = 0, max = 0, average = 0
    y : min = 0.000872666798, max = 0.00549005797, average = 0.00123342378
room_SIDE1
    y+ : min = 0, max = 0, average = 0
    y : min = 0.000544684643, max = 0.0025, average = 0.00234602486
manikin
    y+ : min = 0, max = 0, average = 0
    y : min = 4.97449872e-05, max = 0.00255854003, average = 0.000292020944

forceCoeffs forceCoeffs1 output:
    Cm    = -4499.86349
    Cd    = -99.5598637
    Cl    = -8664.87679
    Cl(f) = -8832.30188
    Cl(r) = 167.425092

Time = 6

ExecutionTime = 19.21 s  ClockTime = 19 s

wallHeatFlux wallHeatFlux output:

Wall heat fluxes [W]
room_SIDE2
    convective: 0
    radiative:  -0
    total:      0
    Temperature : min = 293.55, max = 293.55, average = 293.55
room_FLOOR
    convective: 0
    radiative:  -0
    total:      0
    Temperature : min = 293.55, max = 293.55, average = 293.55
room_CEILING
    convective: 0
    radiative:  -0
    total:      0
    Temperature : min = 293.55, max = 293.55, average = 293.55
room_BACK
    convective: 0
    radiative:  -0
    total:      0
    Temperature : min = 293.55, max = 293.55, average = 293.55
room_SIDE1
    convective: 0
    radiative:  -0
    total:      0
    Temperature : min = 293.55, max = 293.55, average = 293.55
manikin
    convective: 1918.61557
    radiative:  -0
    total:      1918.61557
    Temperature : min = 307.15, max = 307.15, average = 307.15

yPlusRAS yplusRAS output:
    patch room_SIDE2 y+ : min = 0.628826338, max = 2.88619683, average = 2.70844379
    patch room_FLOOR y+ : min = 0.160969906, max = 2.88619649, average = 1.86929758
    patch room_CEILING y+ : min = 0.747111756, max = 2.8861965, average = 2.67122461
    patch room_BACK y+ : min = 1.00747525, max = 6.33815513, average = 1.42396152
    patch room_SIDE1 y+ : min = 0.628826834, max = 2.88619682, average = 2.70843579
    patch manikin y+ : min = 0.0548866625, max = 2.82299245, average = 0.322204425

yPlusRASLowRe yplusRASLowRe output:
room_SIDE2
    y+ : min = 0, max = 0, average = 0
    y : min = 0.000544684214, max = 0.00250000001, average = 0.00234603179
room_FLOOR
    y+ : min = 0, max = 0, average = 0
    y : min = 0.000139430812, max = 0.00249999971, average = 0.00161917022
room_CEILING
    y+ : min = 0, max = 0, average = 0
    y : min = 0.000647142072, max = 0.00249999973, average = 0.00231379284
room_BACK
    y+ : min = 0, max = 0, average = 0
    y : min = 0.000872666798, max = 0.00549005797, average = 0.00123342378
room_SIDE1
    y+ : min = 0, max = 0, average = 0
    y : min = 0.000544684643, max = 0.0025, average = 0.00234602486
manikin
    y+ : min = 0, max = 0, average = 0
    y : min = 4.97449872e-05, max = 0.00255854003, average = 0.000292020944

forceCoeffs forceCoeffs1 output:
    Cm    = -4499.86349
    Cd    = -99.5598637
    Cl    = -8664.87679
    Cl(f) = -8832.30188
    Cl(r) = 167.425092

Time = 7

ExecutionTime = 20.13 s  ClockTime = 20 s

wallHeatFlux wallHeatFlux output:

Wall heat fluxes [W]
room_SIDE2
    convective: 0
    radiative:  -0
    total:      0
    Temperature : min = 293.55, max = 293.55, average = 293.55
room_FLOOR
    convective: 0
    radiative:  -0
    total:      0
    Temperature : min = 293.55, max = 293.55, average = 293.55
room_CEILING
    convective: 0
    radiative:  -0
    total:      0
    Temperature : min = 293.55, max = 293.55, average = 293.55
room_BACK
    convective: 0
    radiative:  -0
    total:      0
    Temperature : min = 293.55, max = 293.55, average = 293.55
room_SIDE1
    convective: 0
    radiative:  -0
    total:      0
    Temperature : min = 293.55, max = 293.55, average = 293.55
manikin
    convective: 1918.61557
    radiative:  -0
    total:      1918.61557
    Temperature : min = 307.15, max = 307.15, average = 307.15

yPlusRAS yplusRAS output:
    patch room_SIDE2 y+ : min = 0.628826338, max = 2.88619683, average = 2.70844379
    patch room_FLOOR y+ : min = 0.160969906, max = 2.88619649, average = 1.86929758
    patch room_CEILING y+ : min = 0.747111756, max = 2.8861965, average = 2.67122461
    patch room_BACK y+ : min = 1.00747525, max = 6.33815513, average = 1.42396152
    patch room_SIDE1 y+ : min = 0.628826834, max = 2.88619682, average = 2.70843579
    patch manikin y+ : min = 0.0548866625, max = 2.82299245, average = 0.322204425

yPlusRASLowRe yplusRASLowRe output:
room_SIDE2
    y+ : min = 0, max = 0, average = 0
    y : min = 0.000544684214, max = 0.00250000001, average = 0.00234603179
room_FLOOR
    y+ : min = 0, max = 0, average = 0
    y : min = 0.000139430812, max = 0.00249999971, average = 0.00161917022
room_CEILING
    y+ : min = 0, max = 0, average = 0
    y : min = 0.000647142072, max = 0.00249999973, average = 0.00231379284
room_BACK
    y+ : min = 0, max = 0, average = 0
    y : min = 0.000872666798, max = 0.00549005797, average = 0.00123342378
room_SIDE1
    y+ : min = 0, max = 0, average = 0
    y : min = 0.000544684643, max = 0.0025, average = 0.00234602486
manikin
    y+ : min = 0, max = 0, average = 0
    y : min = 4.97449872e-05, max = 0.00255854003, average = 0.000292020944

forceCoeffs forceCoeffs1 output:
    Cm    = -4499.86349
    Cd    = -99.5598637
    Cl    = -8664.87679
    Cl(f) = -8832.30188
    Cl(r) = 167.425092

Time = 8

ExecutionTime = 21.06 s  ClockTime = 21 s

wallHeatFlux wallHeatFlux output:

Wall heat fluxes [W]
room_SIDE2
    convective: 0
    radiative:  -0
    total:      0
    Temperature : min = 293.55, max = 293.55, average = 293.55
room_FLOOR
    convective: 0
    radiative:  -0
    total:      0
    Temperature : min = 293.55, max = 293.55, average = 293.55
room_CEILING
    convective: 0
    radiative:  -0
    total:      0
    Temperature : min = 293.55, max = 293.55, average = 293.55
room_BACK
    convective: 0
    radiative:  -0
    total:      0
    Temperature : min = 293.55, max = 293.55, average = 293.55
room_SIDE1
    convective: 0
    radiative:  -0
    total:      0
    Temperature : min = 293.55, max = 293.55, average = 293.55
manikin
    convective: 1918.61557
    radiative:  -0
    total:      1918.61557
    Temperature : min = 307.15, max = 307.15, average = 307.15

yPlusRAS yplusRAS output:
    patch room_SIDE2 y+ : min = 0.628826338, max = 2.88619683, average = 2.70844379
    patch room_FLOOR y+ : min = 0.160969906, max = 2.88619649, average = 1.86929758
    patch room_CEILING y+ : min = 0.747111756, max = 2.8861965, average = 2.67122461
    patch room_BACK y+ : min = 1.00747525, max = 6.33815513, average = 1.42396152
    patch room_SIDE1 y+ : min = 0.628826834, max = 2.88619682, average = 2.70843579
    patch manikin y+ : min = 0.0548866625, max = 2.82299245, average = 0.322204425

yPlusRASLowRe yplusRASLowRe output:
room_SIDE2
    y+ : min = 0, max = 0, average = 0
    y : min = 0.000544684214, max = 0.00250000001, average = 0.00234603179
room_FLOOR
    y+ : min = 0, max = 0, average = 0
    y : min = 0.000139430812, max = 0.00249999971, average = 0.00161917022
room_CEILING
    y+ : min = 0, max = 0, average = 0
    y : min = 0.000647142072, max = 0.00249999973, average = 0.00231379284
room_BACK
    y+ : min = 0, max = 0, average = 0
    y : min = 0.000872666798, max = 0.00549005797, average = 0.00123342378
room_SIDE1
    y+ : min = 0, max = 0, average = 0
    y : min = 0.000544684643, max = 0.0025, average = 0.00234602486
manikin
    y+ : min = 0, max = 0, average = 0
    y : min = 4.97449872e-05, max = 0.00255854003, average = 0.000292020944

forceCoeffs forceCoeffs1 output:
    Cm    = -4499.86349
    Cd    = -99.5598637
    Cl    = -8664.87679
    Cl(f) = -8832.30188
    Cl(r) = 167.425092

Time = 9

ExecutionTime = 22.04 s  ClockTime = 22 s

wallHeatFlux wallHeatFlux output:

Wall heat fluxes [W]
room_SIDE2
    convective: 0
    radiative:  -0
    total:      0
    Temperature : min = 293.55, max = 293.55, average = 293.55
room_FLOOR
    convective: 0
    radiative:  -0
    total:      0
    Temperature : min = 293.55, max = 293.55, average = 293.55
room_CEILING
    convective: 0
    radiative:  -0
    total:      0
    Temperature : min = 293.55, max = 293.55, average = 293.55
room_BACK
    convective: 0
    radiative:  -0
    total:      0
    Temperature : min = 293.55, max = 293.55, average = 293.55
room_SIDE1
    convective: 0
    radiative:  -0
    total:      0
    Temperature : min = 293.55, max = 293.55, average = 293.55
manikin
    convective: 1918.61557
    radiative:  -0
    total:      1918.61557
    Temperature : min = 307.15, max = 307.15, average = 307.15

yPlusRAS yplusRAS output:
    patch room_SIDE2 y+ : min = 0.628826338, max = 2.88619683, average = 2.70844379
    patch room_FLOOR y+ : min = 0.160969906, max = 2.88619649, average = 1.86929758
    patch room_CEILING y+ : min = 0.747111756, max = 2.8861965, average = 2.67122461
    patch room_BACK y+ : min = 1.00747525, max = 6.33815513, average = 1.42396152
    patch room_SIDE1 y+ : min = 0.628826834, max = 2.88619682, average = 2.70843579
    patch manikin y+ : min = 0.0548866625, max = 2.82299245, average = 0.322204425

yPlusRASLowRe yplusRASLowRe output:
room_SIDE2
    y+ : min = 0, max = 0, average = 0
    y : min = 0.000544684214, max = 0.00250000001, average = 0.00234603179
room_FLOOR
    y+ : min = 0, max = 0, average = 0
    y : min = 0.000139430812, max = 0.00249999971, average = 0.00161917022
room_CEILING
    y+ : min = 0, max = 0, average = 0
    y : min = 0.000647142072, max = 0.00249999973, average = 0.00231379284
room_BACK
    y+ : min = 0, max = 0, average = 0
    y : min = 0.000872666798, max = 0.00549005797, average = 0.00123342378
room_SIDE1
    y+ : min = 0, max = 0, average = 0
    y : min = 0.000544684643, max = 0.0025, average = 0.00234602486
manikin
    y+ : min = 0, max = 0, average = 0
    y : min = 4.97449872e-05, max = 0.00255854003, average = 0.000292020944

forceCoeffs forceCoeffs1 output:
    Cm    = -4499.86349
    Cd    = -99.5598637
    Cl    = -8664.87679
    Cl(f) = -8832.30188
    Cl(r) = 167.425092

Time = 10

ExecutionTime = 22.95 s  ClockTime = 23 s

wallHeatFlux wallHeatFlux output:

Wall heat fluxes [W]
room_SIDE2
    convective: 0
    radiative:  -0
    total:      0
    Temperature : min = 293.55, max = 293.55, average = 293.55
room_FLOOR
    convective: 0
    radiative:  -0
    total:      0
    Temperature : min = 293.55, max = 293.55, average = 293.55
room_CEILING
    convective: 0
    radiative:  -0
    total:      0
    Temperature : min = 293.55, max = 293.55, average = 293.55
room_BACK
    convective: 0
    radiative:  -0
    total:      0
    Temperature : min = 293.55, max = 293.55, average = 293.55
room_SIDE1
    convective: 0
    radiative:  -0
    total:      0
    Temperature : min = 293.55, max = 293.55, average = 293.55
manikin
    convective: 1918.61557
    radiative:  -0
    total:      1918.61557
    Temperature : min = 307.15, max = 307.15, average = 307.15

yPlusRAS yplusRAS output:
    patch room_SIDE2 y+ : min = 0.628826338, max = 2.88619683, average = 2.70844379
    patch room_FLOOR y+ : min = 0.160969906, max = 2.88619649, average = 1.86929758
    patch room_CEILING y+ : min = 0.747111756, max = 2.8861965, average = 2.67122461
    patch room_BACK y+ : min = 1.00747525, max = 6.33815513, average = 1.42396152
    patch room_SIDE1 y+ : min = 0.628826834, max = 2.88619682, average = 2.70843579
    patch manikin y+ : min = 0.0548866625, max = 2.82299245, average = 0.322204425

yPlusRASLowRe yplusRASLowRe output:
room_SIDE2
    y+ : min = 0, max = 0, average = 0
    y : min = 0.000544684214, max = 0.00250000001, average = 0.00234603179
room_FLOOR
    y+ : min = 0, max = 0, average = 0
    y : min = 0.000139430812, max = 0.00249999971, average = 0.00161917022
room_CEILING
    y+ : min = 0, max = 0, average = 0
    y : min = 0.000647142072, max = 0.00249999973, average = 0.00231379284
room_BACK
    y+ : min = 0, max = 0, average = 0
    y : min = 0.000872666798, max = 0.00549005797, average = 0.00123342378
room_SIDE1
    y+ : min = 0, max = 0, average = 0
    y : min = 0.000544684643, max = 0.0025, average = 0.00234602486
manikin
    y+ : min = 0, max = 0, average = 0
    y : min = 4.97449872e-05, max = 0.00255854003, average = 0.000292020944

forceCoeffs forceCoeffs1 output:
    Cm    = -4499.86349
    Cd    = -99.5598637
    Cl    = -8664.87679
    Cl(f) = -8832.30188
    Cl(r) = 167.425092

Time = 11

ExecutionTime = 23.93 s  ClockTime = 24 s

wallHeatFlux wallHeatFlux output:

Wall heat fluxes [W]
room_SIDE2
    convective: 0
    radiative:  -0
    total:      0
    Temperature : min = 293.55, max = 293.55, average = 293.55
room_FLOOR
    convective: 0
    radiative:  -0
    total:      0
    Temperature : min = 293.55, max = 293.55, average = 293.55
room_CEILING
    convective: 0
    radiative:  -0
    total:      0
    Temperature : min = 293.55, max = 293.55, average = 293.55
room_BACK
    convective: 0
    radiative:  -0
    total:      0
    Temperature : min = 293.55, max = 293.55, average = 293.55
room_SIDE1
    convective: 0
    radiative:  -0
    total:      0
    Temperature : min = 293.55, max = 293.55, average = 293.55
manikin
    convective: 1918.61557
    radiative:  -0
    total:      1918.61557
    Temperature : min = 307.15, max = 307.15, average = 307.15

yPlusRAS yplusRAS output:
    patch room_SIDE2 y+ : min = 0.628826338, max = 2.88619683, average = 2.70844379
    patch room_FLOOR y+ : min = 0.160969906, max = 2.88619649, average = 1.86929758
    patch room_CEILING y+ : min = 0.747111756, max = 2.8861965, average = 2.67122461
    patch room_BACK y+ : min = 1.00747525, max = 6.33815513, average = 1.42396152
    patch room_SIDE1 y+ : min = 0.628826834, max = 2.88619682, average = 2.70843579
    patch manikin y+ : min = 0.0548866625, max = 2.82299245, average = 0.322204425

yPlusRASLowRe yplusRASLowRe output:
room_SIDE2
    y+ : min = 0, max = 0, average = 0
    y : min = 0.000544684214, max = 0.00250000001, average = 0.00234603179
room_FLOOR
    y+ : min = 0, max = 0, average = 0
    y : min = 0.000139430812, max = 0.00249999971, average = 0.00161917022
room_CEILING
    y+ : min = 0, max = 0, average = 0
    y : min = 0.000647142072, max = 0.00249999973, average = 0.00231379284
room_BACK
    y+ : min = 0, max = 0, average = 0
    y : min = 0.000872666798, max = 0.00549005797, average = 0.00123342378
room_SIDE1
    y+ : min = 0, max = 0, average = 0
    y : min = 0.000544684643, max = 0.0025, average = 0.00234602486
manikin
    y+ : min = 0, max = 0, average = 0
    y : min = 4.97449872e-05, max = 0.00255854003, average = 0.000292020944

forceCoeffs forceCoeffs1 output:
    Cm    = -4499.86349
    Cd    = -99.5598637
    Cl    = -8664.87679
    Cl(f) = -8832.30188
    Cl(r) = 167.425092

Time = 12

ExecutionTime = 24.93 s  ClockTime = 25 s

wallHeatFlux wallHeatFlux output:

Wall heat fluxes [W]
room_SIDE2
    convective: 0
    radiative:  -0
    total:      0
    Temperature : min = 293.55, max = 293.55, average = 293.55
room_FLOOR
    convective: 0
    radiative:  -0
    total:      0
    Temperature : min = 293.55, max = 293.55, average = 293.55
room_CEILING
    convective: 0
    radiative:  -0
    total:      0
    Temperature : min = 293.55, max = 293.55, average = 293.55
room_BACK
    convective: 0
    radiative:  -0
    total:      0
    Temperature : min = 293.55, max = 293.55, average = 293.55
room_SIDE1
    convective: 0
    radiative:  -0
    total:      0
    Temperature : min = 293.55, max = 293.55, average = 293.55
manikin
    convective: 1918.61557
    radiative:  -0
    total:      1918.61557
    Temperature : min = 307.15, max = 307.15, average = 307.15

yPlusRAS yplusRAS output:
    patch room_SIDE2 y+ : min = 0.628826338, max = 2.88619683, average = 2.70844379
    patch room_FLOOR y+ : min = 0.160969906, max = 2.88619649, average = 1.86929758
    patch room_CEILING y+ : min = 0.747111756, max = 2.8861965, average = 2.67122461
    patch room_BACK y+ : min = 1.00747525, max = 6.33815513, average = 1.42396152
    patch room_SIDE1 y+ : min = 0.628826834, max = 2.88619682, average = 2.70843579
    patch manikin y+ : min = 0.0548866625, max = 2.82299245, average = 0.322204425

yPlusRASLowRe yplusRASLowRe output:
room_SIDE2
    y+ : min = 0, max = 0, average = 0
    y : min = 0.000544684214, max = 0.00250000001, average = 0.00234603179
room_FLOOR
    y+ : min = 0, max = 0, average = 0
    y : min = 0.000139430812, max = 0.00249999971, average = 0.00161917022
room_CEILING
    y+ : min = 0, max = 0, average = 0
    y : min = 0.000647142072, max = 0.00249999973, average = 0.00231379284
room_BACK
    y+ : min = 0, max = 0, average = 0
    y : min = 0.000872666798, max = 0.00549005797, average = 0.00123342378
room_SIDE1
    y+ : min = 0, max = 0, average = 0
    y : min = 0.000544684643, max = 0.0025, average = 0.00234602486
manikin
    y+ : min = 0, max = 0, average = 0
    y : min = 4.97449872e-05, max = 0.00255854003, average = 0.000292020944

forceCoeffs forceCoeffs1 output:
    Cm    = -4499.86349
    Cd    = -99.5598637
    Cl    = -8664.87679
    Cl(f) = -8832.30188
    Cl(r) = 167.425092

Time = 13

ExecutionTime = 25.89 s  ClockTime = 26 s

wallHeatFlux wallHeatFlux output:

Wall heat fluxes [W]
room_SIDE2
    convective: 0
    radiative:  -0
    total:      0
    Temperature : min = 293.55, max = 293.55, average = 293.55
room_FLOOR
    convective: 0
    radiative:  -0
    total:      0
    Temperature : min = 293.55, max = 293.55, average = 293.55
room_CEILING
    convective: 0
    radiative:  -0
    total:      0
    Temperature : min = 293.55, max = 293.55, average = 293.55
room_BACK
    convective: 0
    radiative:  -0
    total:      0
    Temperature : min = 293.55, max = 293.55, average = 293.55
room_SIDE1
    convective: 0
    radiative:  -0
    total:      0
    Temperature : min = 293.55, max = 293.55, average = 293.55
manikin
    convective: 1918.61557
    radiative:  -0
    total:      1918.61557
    Temperature : min = 307.15, max = 307.15, average = 307.15

yPlusRAS yplusRAS output:
    patch room_SIDE2 y+ : min = 0.628826338, max = 2.88619683, average = 2.70844379
    patch room_FLOOR y+ : min = 0.160969906, max = 2.88619649, average = 1.86929758
    patch room_CEILING y+ : min = 0.747111756, max = 2.8861965, average = 2.67122461
    patch room_BACK y+ : min = 1.00747525, max = 6.33815513, average = 1.42396152
    patch room_SIDE1 y+ : min = 0.628826834, max = 2.88619682, average = 2.70843579
    patch manikin y+ : min = 0.0548866625, max = 2.82299245, average = 0.322204425

yPlusRASLowRe yplusRASLowRe output:
room_SIDE2
    y+ : min = 0, max = 0, average = 0
    y : min = 0.000544684214, max = 0.00250000001, average = 0.00234603179
room_FLOOR
    y+ : min = 0, max = 0, average = 0
    y : min = 0.000139430812, max = 0.00249999971, average = 0.00161917022
room_CEILING
    y+ : min = 0, max = 0, average = 0
    y : min = 0.000647142072, max = 0.00249999973, average = 0.00231379284
room_BACK
    y+ : min = 0, max = 0, average = 0
    y : min = 0.000872666798, max = 0.00549005797, average = 0.00123342378
room_SIDE1
    y+ : min = 0, max = 0, average = 0
    y : min = 0.000544684643, max = 0.0025, average = 0.00234602486
manikin
    y+ : min = 0, max = 0, average = 0
    y : min = 4.97449872e-05, max = 0.00255854003, average = 0.000292020944

forceCoeffs forceCoeffs1 output:
    Cm    = -4499.86349
    Cd    = -99.5598637
    Cl    = -8664.87679
    Cl(f) = -8832.30188
    Cl(r) = 167.425092

Time = 14

ExecutionTime = 26.8 s  ClockTime = 27 s

wallHeatFlux wallHeatFlux output:

Wall heat fluxes [W]
room_SIDE2
    convective: 0
    radiative:  -0
    total:      0
    Temperature : min = 293.55, max = 293.55, average = 293.55
room_FLOOR
    convective: 0
    radiative:  -0
    total:      0
    Temperature : min = 293.55, max = 293.55, average = 293.55
room_CEILING
    convective: 0
    radiative:  -0
    total:      0
    Temperature : min = 293.55, max = 293.55, average = 293.55
room_BACK
    convective: 0
    radiative:  -0
    total:      0
    Temperature : min = 293.55, max = 293.55, average = 293.55
room_SIDE1
    convective: 0
    radiative:  -0
    total:      0
    Temperature : min = 293.55, max = 293.55, average = 293.55
manikin
    convective: 1918.61557
    radiative:  -0
    total:      1918.61557
    Temperature : min = 307.15, max = 307.15, average = 307.15

yPlusRAS yplusRAS output:
    patch room_SIDE2 y+ : min = 0.628826338, max = 2.88619683, average = 2.70844379
    patch room_FLOOR y+ : min = 0.160969906, max = 2.88619649, average = 1.86929758
    patch room_CEILING y+ : min = 0.747111756, max = 2.8861965, average = 2.67122461
    patch room_BACK y+ : min = 1.00747525, max = 6.33815513, average = 1.42396152
    patch room_SIDE1 y+ : min = 0.628826834, max = 2.88619682, average = 2.70843579
    patch manikin y+ : min = 0.0548866625, max = 2.82299245, average = 0.322204425

yPlusRASLowRe yplusRASLowRe output:
room_SIDE2
    y+ : min = 0, max = 0, average = 0
    y : min = 0.000544684214, max = 0.00250000001, average = 0.00234603179
room_FLOOR
    y+ : min = 0, max = 0, average = 0
    y : min = 0.000139430812, max = 0.00249999971, average = 0.00161917022
room_CEILING
    y+ : min = 0, max = 0, average = 0
    y : min = 0.000647142072, max = 0.00249999973, average = 0.00231379284
room_BACK
    y+ : min = 0, max = 0, average = 0
    y : min = 0.000872666798, max = 0.00549005797, average = 0.00123342378
room_SIDE1
    y+ : min = 0, max = 0, average = 0
    y : min = 0.000544684643, max = 0.0025, average = 0.00234602486
manikin
    y+ : min = 0, max = 0, average = 0
    y : min = 4.97449872e-05, max = 0.00255854003, average = 0.000292020944

forceCoeffs forceCoeffs1 output:
    Cm    = -4499.86349
    Cd    = -99.5598637
    Cl    = -8664.87679
    Cl(f) = -8832.30188
    Cl(r) = 167.425092

Time = 15

ExecutionTime = 27.73 s  ClockTime = 28 s

wallHeatFlux wallHeatFlux output:

Wall heat fluxes [W]
room_SIDE2
    convective: 0
    radiative:  -0
    total:      0
    Temperature : min = 293.55, max = 293.55, average = 293.55
room_FLOOR
    convective: 0
    radiative:  -0
    total:      0
    Temperature : min = 293.55, max = 293.55, average = 293.55
room_CEILING
    convective: 0
    radiative:  -0
    total:      0
    Temperature : min = 293.55, max = 293.55, average = 293.55
room_BACK
    convective: 0
    radiative:  -0
    total:      0
    Temperature : min = 293.55, max = 293.55, average = 293.55
room_SIDE1
    convective: 0
    radiative:  -0
    total:      0
    Temperature : min = 293.55, max = 293.55, average = 293.55
manikin
    convective: 1918.61557
    radiative:  -0
    total:      1918.61557
    Temperature : min = 307.15, max = 307.15, average = 307.15

yPlusRAS yplusRAS output:
    patch room_SIDE2 y+ : min = 0.628826338, max = 2.88619683, average = 2.70844379
    patch room_FLOOR y+ : min = 0.160969906, max = 2.88619649, average = 1.86929758
    patch room_CEILING y+ : min = 0.747111756, max = 2.8861965, average = 2.67122461
    patch room_BACK y+ : min = 1.00747525, max = 6.33815513, average = 1.42396152
    patch room_SIDE1 y+ : min = 0.628826834, max = 2.88619682, average = 2.70843579
    patch manikin y+ : min = 0.0548866625, max = 2.82299245, average = 0.322204425

yPlusRASLowRe yplusRASLowRe output:
room_SIDE2
    y+ : min = 0, max = 0, average = 0
    y : min = 0.000544684214, max = 0.00250000001, average = 0.00234603179
room_FLOOR
    y+ : min = 0, max = 0, average = 0
    y : min = 0.000139430812, max = 0.00249999971, average = 0.00161917022
room_CEILING
    y+ : min = 0, max = 0, average = 0
    y : min = 0.000647142072, max = 0.00249999973, average = 0.00231379284
room_BACK
    y+ : min = 0, max = 0, average = 0
    y : min = 0.000872666798, max = 0.00549005797, average = 0.00123342378
room_SIDE1
    y+ : min = 0, max = 0, average = 0
    y : min = 0.000544684643, max = 0.0025, average = 0.00234602486
manikin
    y+ : min = 0, max = 0, average = 0
    y : min = 4.97449872e-05, max = 0.00255854003, average = 0.000292020944

forceCoeffs forceCoeffs1 output:
    Cm    = -4499.86349
    Cd    = -99.5598637
    Cl    = -8664.87679
    Cl(f) = -8832.30188
    Cl(r) = 167.425092

Time = 16

ExecutionTime = 28.66 s  ClockTime = 29 s

wallHeatFlux wallHeatFlux output:

Wall heat fluxes [W]
room_SIDE2
    convective: 0
    radiative:  -0
    total:      0
    Temperature : min = 293.55, max = 293.55, average = 293.55
room_FLOOR
    convective: 0
    radiative:  -0
    total:      0
    Temperature : min = 293.55, max = 293.55, average = 293.55
room_CEILING
    convective: 0
    radiative:  -0
    total:      0
    Temperature : min = 293.55, max = 293.55, average = 293.55
room_BACK
    convective: 0
    radiative:  -0
    total:      0
    Temperature : min = 293.55, max = 293.55, average = 293.55
room_SIDE1
    convective: 0
    radiative:  -0
    total:      0
    Temperature : min = 293.55, max = 293.55, average = 293.55
manikin
    convective: 1918.61557
    radiative:  -0
    total:      1918.61557
    Temperature : min = 307.15, max = 307.15, average = 307.15

yPlusRAS yplusRAS output:
    patch room_SIDE2 y+ : min = 0.628826338, max = 2.88619683, average = 2.70844379
    patch room_FLOOR y+ : min = 0.160969906, max = 2.88619649, average = 1.86929758
    patch room_CEILING y+ : min = 0.747111756, max = 2.8861965, average = 2.67122461
    patch room_BACK y+ : min = 1.00747525, max = 6.33815513, average = 1.42396152
    patch room_SIDE1 y+ : min = 0.628826834, max = 2.88619682, average = 2.70843579
    patch manikin y+ : min = 0.0548866625, max = 2.82299245, average = 0.322204425

yPlusRASLowRe yplusRASLowRe output:
room_SIDE2
    y+ : min = 0, max = 0, average = 0
    y : min = 0.000544684214, max = 0.00250000001, average = 0.00234603179
room_FLOOR
    y+ : min = 0, max = 0, average = 0
    y : min = 0.000139430812, max = 0.00249999971, average = 0.00161917022
room_CEILING
    y+ : min = 0, max = 0, average = 0
    y : min = 0.000647142072, max = 0.00249999973, average = 0.00231379284
room_BACK
    y+ : min = 0, max = 0, average = 0
    y : min = 0.000872666798, max = 0.00549005797, average = 0.00123342378
room_SIDE1
    y+ : min = 0, max = 0, average = 0
    y : min = 0.000544684643, max = 0.0025, average = 0.00234602486
manikin
    y+ : min = 0, max = 0, average = 0
    y : min = 4.97449872e-05, max = 0.00255854003, average = 0.000292020944

forceCoeffs forceCoeffs1 output:
    Cm    = -4499.86349
    Cd    = -99.5598637
    Cl    = -8664.87679
    Cl(f) = -8832.30188
    Cl(r) = 167.425092

Time = 17

ExecutionTime = 29.62 s  ClockTime = 30 s

wallHeatFlux wallHeatFlux output:

Wall heat fluxes [W]
room_SIDE2
    convective: 0
    radiative:  -0
    total:      0
    Temperature : min = 293.55, max = 293.55, average = 293.55
room_FLOOR
    convective: 0
    radiative:  -0
    total:      0
    Temperature : min = 293.55, max = 293.55, average = 293.55
room_CEILING
    convective: 0
    radiative:  -0
    total:      0
    Temperature : min = 293.55, max = 293.55, average = 293.55
room_BACK
    convective: 0
    radiative:  -0
    total:      0
    Temperature : min = 293.55, max = 293.55, average = 293.55
room_SIDE1
    convective: 0
    radiative:  -0
    total:      0
    Temperature : min = 293.55, max = 293.55, average = 293.55
manikin
    convective: 1918.61557
    radiative:  -0
    total:      1918.61557
    Temperature : min = 307.15, max = 307.15, average = 307.15

yPlusRAS yplusRAS output:
    patch room_SIDE2 y+ : min = 0.628826338, max = 2.88619683, average = 2.70844379
    patch room_FLOOR y+ : min = 0.160969906, max = 2.88619649, average = 1.86929758
    patch room_CEILING y+ : min = 0.747111756, max = 2.8861965, average = 2.67122461
    patch room_BACK y+ : min = 1.00747525, max = 6.33815513, average = 1.42396152
    patch room_SIDE1 y+ : min = 0.628826834, max = 2.88619682, average = 2.70843579
    patch manikin y+ : min = 0.0548866625, max = 2.82299245, average = 0.322204425

yPlusRASLowRe yplusRASLowRe output:
room_SIDE2
    y+ : min = 0, max = 0, average = 0
    y : min = 0.000544684214, max = 0.00250000001, average = 0.00234603179
room_FLOOR
    y+ : min = 0, max = 0, average = 0
    y : min = 0.000139430812, max = 0.00249999971, average = 0.00161917022
room_CEILING
    y+ : min = 0, max = 0, average = 0
    y : min = 0.000647142072, max = 0.00249999973, average = 0.00231379284
room_BACK
    y+ : min = 0, max = 0, average = 0
    y : min = 0.000872666798, max = 0.00549005797, average = 0.00123342378
room_SIDE1
    y+ : min = 0, max = 0, average = 0
    y : min = 0.000544684643, max = 0.0025, average = 0.00234602486
manikin
    y+ : min = 0, max = 0, average = 0
    y : min = 4.97449872e-05, max = 0.00255854003, average = 0.000292020944

forceCoeffs forceCoeffs1 output:
    Cm    = -4499.86349
    Cd    = -99.5598637
    Cl    = -8664.87679
    Cl(f) = -8832.30188
    Cl(r) = 167.425092

Time = 18

ExecutionTime = 30.53 s  ClockTime = 31 s

wallHeatFlux wallHeatFlux output:

Wall heat fluxes [W]
room_SIDE2
    convective: 0
    radiative:  -0
    total:      0
    Temperature : min = 293.55, max = 293.55, average = 293.55
room_FLOOR
    convective: 0
    radiative:  -0
    total:      0
    Temperature : min = 293.55, max = 293.55, average = 293.55
room_CEILING
    convective: 0
    radiative:  -0
    total:      0
    Temperature : min = 293.55, max = 293.55, average = 293.55
room_BACK
    convective: 0
    radiative:  -0
    total:      0
    Temperature : min = 293.55, max = 293.55, average = 293.55
room_SIDE1
    convective: 0
    radiative:  -0
    total:      0
    Temperature : min = 293.55, max = 293.55, average = 293.55
manikin
    convective: 1918.61557
    radiative:  -0
    total:      1918.61557
    Temperature : min = 307.15, max = 307.15, average = 307.15

yPlusRAS yplusRAS output:
    patch room_SIDE2 y+ : min = 0.628826338, max = 2.88619683, average = 2.70844379
    patch room_FLOOR y+ : min = 0.160969906, max = 2.88619649, average = 1.86929758
    patch room_CEILING y+ : min = 0.747111756, max = 2.8861965, average = 2.67122461
    patch room_BACK y+ : min = 1.00747525, max = 6.33815513, average = 1.42396152
    patch room_SIDE1 y+ : min = 0.628826834, max = 2.88619682, average = 2.70843579
    patch manikin y+ : min = 0.0548866625, max = 2.82299245, average = 0.322204425

yPlusRASLowRe yplusRASLowRe output:
room_SIDE2
    y+ : min = 0, max = 0, average = 0
    y : min = 0.000544684214, max = 0.00250000001, average = 0.00234603179
room_FLOOR
    y+ : min = 0, max = 0, average = 0
    y : min = 0.000139430812, max = 0.00249999971, average = 0.00161917022
room_CEILING
    y+ : min = 0, max = 0, average = 0
    y : min = 0.000647142072, max = 0.00249999973, average = 0.00231379284
room_BACK
    y+ : min = 0, max = 0, average = 0
    y : min = 0.000872666798, max = 0.00549005797, average = 0.00123342378
room_SIDE1
    y+ : min = 0, max = 0, average = 0
    y : min = 0.000544684643, max = 0.0025, average = 0.00234602486
manikin
    y+ : min = 0, max = 0, average = 0
    y : min = 4.97449872e-05, max = 0.00255854003, average = 0.000292020944

forceCoeffs forceCoeffs1 output:
    Cm    = -4499.86349
    Cd    = -99.5598637
    Cl    = -8664.87679
    Cl(f) = -8832.30188
    Cl(r) = 167.425092

Time = 19

ExecutionTime = 31.47 s  ClockTime = 32 s

wallHeatFlux wallHeatFlux output:

Wall heat fluxes [W]
room_SIDE2
    convective: 0
    radiative:  -0
    total:      0
    Temperature : min = 293.55, max = 293.55, average = 293.55
room_FLOOR
    convective: 0
    radiative:  -0
    total:      0
    Temperature : min = 293.55, max = 293.55, average = 293.55
room_CEILING
    convective: 0
    radiative:  -0
    total:      0
    Temperature : min = 293.55, max = 293.55, average = 293.55
room_BACK
    convective: 0
    radiative:  -0
    total:      0
    Temperature : min = 293.55, max = 293.55, average = 293.55
room_SIDE1
    convective: 0
    radiative:  -0
    total:      0
    Temperature : min = 293.55, max = 293.55, average = 293.55
manikin
    convective: 1918.61557
    radiative:  -0
    total:      1918.61557
    Temperature : min = 307.15, max = 307.15, average = 307.15

yPlusRAS yplusRAS output:
    patch room_SIDE2 y+ : min = 0.628826338, max = 2.88619683, average = 2.70844379
    patch room_FLOOR y+ : min = 0.160969906, max = 2.88619649, average = 1.86929758
    patch room_CEILING y+ : min = 0.747111756, max = 2.8861965, average = 2.67122461
    patch room_BACK y+ : min = 1.00747525, max = 6.33815513, average = 1.42396152
    patch room_SIDE1 y+ : min = 0.628826834, max = 2.88619682, average = 2.70843579
    patch manikin y+ : min = 0.0548866625, max = 2.82299245, average = 0.322204425

yPlusRASLowRe yplusRASLowRe output:
room_SIDE2
    y+ : min = 0, max = 0, average = 0
    y : min = 0.000544684214, max = 0.00250000001, average = 0.00234603179
room_FLOOR
    y+ : min = 0, max = 0, average = 0
    y : min = 0.000139430812, max = 0.00249999971, average = 0.00161917022
room_CEILING
    y+ : min = 0, max = 0, average = 0
    y : min = 0.000647142072, max = 0.00249999973, average = 0.00231379284
room_BACK
    y+ : min = 0, max = 0, average = 0
    y : min = 0.000872666798, max = 0.00549005797, average = 0.00123342378
room_SIDE1
    y+ : min = 0, max = 0, average = 0
    y : min = 0.000544684643, max = 0.0025, average = 0.00234602486
manikin
    y+ : min = 0, max = 0, average = 0
    y : min = 4.97449872e-05, max = 0.00255854003, average = 0.000292020944

forceCoeffs forceCoeffs1 output:
    Cm    = -4499.86349
    Cd    = -99.5598637
    Cl    = -8664.87679
    Cl(f) = -8832.30188
    Cl(r) = 167.425092

Time = 20

ExecutionTime = 32.38 s  ClockTime = 33 s

wallHeatFlux wallHeatFlux output:

Wall heat fluxes [W]
room_SIDE2
    convective: 0
    radiative:  -0
    total:      0
    Temperature : min = 293.55, max = 293.55, average = 293.55
room_FLOOR
    convective: 0
    radiative:  -0
    total:      0
    Temperature : min = 293.55, max = 293.55, average = 293.55
room_CEILING
    convective: 0
    radiative:  -0
    total:      0
    Temperature : min = 293.55, max = 293.55, average = 293.55
room_BACK
    convective: 0
    radiative:  -0
    total:      0
    Temperature : min = 293.55, max = 293.55, average = 293.55
room_SIDE1
    convective: 0
    radiative:  -0
    total:      0
    Temperature : min = 293.55, max = 293.55, average = 293.55
manikin
    convective: 1918.61557
    radiative:  -0
    total:      1918.61557
    Temperature : min = 307.15, max = 307.15, average = 307.15

yPlusRAS yplusRAS output:
    patch room_SIDE2 y+ : min = 0.628826338, max = 2.88619683, average = 2.70844379
    patch room_FLOOR y+ : min = 0.160969906, max = 2.88619649, average = 1.86929758
    patch room_CEILING y+ : min = 0.747111756, max = 2.8861965, average = 2.67122461
    patch room_BACK y+ : min = 1.00747525, max = 6.33815513, average = 1.42396152
    patch room_SIDE1 y+ : min = 0.628826834, max = 2.88619682, average = 2.70843579
    patch manikin y+ : min = 0.0548866625, max = 2.82299245, average = 0.322204425

yPlusRASLowRe yplusRASLowRe output:
room_SIDE2
    y+ : min = 0, max = 0, average = 0
    y : min = 0.000544684214, max = 0.00250000001, average = 0.00234603179
room_FLOOR
    y+ : min = 0, max = 0, average = 0
    y : min = 0.000139430812, max = 0.00249999971, average = 0.00161917022
room_CEILING
    y+ : min = 0, max = 0, average = 0
    y : min = 0.000647142072, max = 0.00249999973, average = 0.00231379284
room_BACK
    y+ : min = 0, max = 0, average = 0
    y : min = 0.000872666798, max = 0.00549005797, average = 0.00123342378
room_SIDE1
    y+ : min = 0, max = 0, average = 0
    y : min = 0.000544684643, max = 0.0025, average = 0.00234602486
manikin
    y+ : min = 0, max = 0, average = 0
    y : min = 4.97449872e-05, max = 0.00255854003, average = 0.000292020944

forceCoeffs forceCoeffs1 output:
    Cm    = -4499.86349
    Cd    = -99.5598637
    Cl    = -8664.87679
    Cl(f) = -8832.30188
    Cl(r) = 167.425092

Time = 21

ExecutionTime = 33.34 s  ClockTime = 33 s

wallHeatFlux wallHeatFlux output:

Wall heat fluxes [W]
room_SIDE2
    convective: 0
    radiative:  -0
    total:      0
    Temperature : min = 293.55, max = 293.55, average = 293.55
room_FLOOR
    convective: 0
    radiative:  -0
    total:      0
    Temperature : min = 293.55, max = 293.55, average = 293.55
room_CEILING
    convective: 0
    radiative:  -0
    total:      0
    Temperature : min = 293.55, max = 293.55, average = 293.55
room_BACK
    convective: 0
    radiative:  -0
    total:      0
    Temperature : min = 293.55, max = 293.55, average = 293.55
room_SIDE1
    convective: 0
    radiative:  -0
    total:      0
    Temperature : min = 293.55, max = 293.55, average = 293.55
manikin
    convective: 1918.61557
    radiative:  -0
    total:      1918.61557
    Temperature : min = 307.15, max = 307.15, average = 307.15

yPlusRAS yplusRAS output:
    patch room_SIDE2 y+ : min = 0.628826338, max = 2.88619683, average = 2.70844379
    patch room_FLOOR y+ : min = 0.160969906, max = 2.88619649, average = 1.86929758
    patch room_CEILING y+ : min = 0.747111756, max = 2.8861965, average = 2.67122461
    patch room_BACK y+ : min = 1.00747525, max = 6.33815513, average = 1.42396152
    patch room_SIDE1 y+ : min = 0.628826834, max = 2.88619682, average = 2.70843579
    patch manikin y+ : min = 0.0548866625, max = 2.82299245, average = 0.322204425

yPlusRASLowRe yplusRASLowRe output:
room_SIDE2
    y+ : min = 0, max = 0, average = 0
    y : min = 0.000544684214, max = 0.00250000001, average = 0.00234603179
room_FLOOR
    y+ : min = 0, max = 0, average = 0
    y : min = 0.000139430812, max = 0.00249999971, average = 0.00161917022
room_CEILING
    y+ : min = 0, max = 0, average = 0
    y : min = 0.000647142072, max = 0.00249999973, average = 0.00231379284
room_BACK
    y+ : min = 0, max = 0, average = 0
    y : min = 0.000872666798, max = 0.00549005797, average = 0.00123342378
room_SIDE1
    y+ : min = 0, max = 0, average = 0
    y : min = 0.000544684643, max = 0.0025, average = 0.00234602486
manikin
    y+ : min = 0, max = 0, average = 0
    y : min = 4.97449872e-05, max = 0.00255854003, average = 0.000292020944

forceCoeffs forceCoeffs1 output:
    Cm    = -4499.86349
    Cd    = -99.5598637
    Cl    = -8664.87679
    Cl(f) = -8832.30188
    Cl(r) = 167.425092

Time = 22

ExecutionTime = 34.26 s  ClockTime = 34 s

wallHeatFlux wallHeatFlux output:

Wall heat fluxes [W]
room_SIDE2
    convective: 0
    radiative:  -0
    total:      0
    Temperature : min = 293.55, max = 293.55, average = 293.55
room_FLOOR
    convective: 0
    radiative:  -0
    total:      0
    Temperature : min = 293.55, max = 293.55, average = 293.55
room_CEILING
    convective: 0
    radiative:  -0
    total:      0
    Temperature : min = 293.55, max = 293.55, average = 293.55
room_BACK
    convective: 0
    radiative:  -0
    total:      0
    Temperature : min = 293.55, max = 293.55, average = 293.55
room_SIDE1
    convective: 0
    radiative:  -0
    total:      0
    Temperature : min = 293.55, max = 293.55, average = 293.55
manikin
    convective: 1918.61557
    radiative:  -0
    total:      1918.61557
    Temperature : min = 307.15, max = 307.15, average = 307.15

yPlusRAS yplusRAS output:
    patch room_SIDE2 y+ : min = 0.628826338, max = 2.88619683, average = 2.70844379
    patch room_FLOOR y+ : min = 0.160969906, max = 2.88619649, average = 1.86929758
    patch room_CEILING y+ : min = 0.747111756, max = 2.8861965, average = 2.67122461
    patch room_BACK y+ : min = 1.00747525, max = 6.33815513, average = 1.42396152
    patch room_SIDE1 y+ : min = 0.628826834, max = 2.88619682, average = 2.70843579
    patch manikin y+ : min = 0.0548866625, max = 2.82299245, average = 0.322204425

yPlusRASLowRe yplusRASLowRe output:
room_SIDE2
    y+ : min = 0, max = 0, average = 0
    y : min = 0.000544684214, max = 0.00250000001, average = 0.00234603179
room_FLOOR
    y+ : min = 0, max = 0, average = 0
    y : min = 0.000139430812, max = 0.00249999971, average = 0.00161917022
room_CEILING
    y+ : min = 0, max = 0, average = 0
    y : min = 0.000647142072, max = 0.00249999973, average = 0.00231379284
room_BACK
    y+ : min = 0, max = 0, average = 0
    y : min = 0.000872666798, max = 0.00549005797, average = 0.00123342378
room_SIDE1
    y+ : min = 0, max = 0, average = 0
    y : min = 0.000544684643, max = 0.0025, average = 0.00234602486
manikin
    y+ : min = 0, max = 0, average = 0
    y : min = 4.97449872e-05, max = 0.00255854003, average = 0.000292020944

forceCoeffs forceCoeffs1 output:
    Cm    = -4499.86349
    Cd    = -99.5598637
    Cl    = -8664.87679
    Cl(f) = -8832.30188
    Cl(r) = 167.425092

Time = 23

ExecutionTime = 35.2 s  ClockTime = 35 s

wallHeatFlux wallHeatFlux output:

Wall heat fluxes [W]
room_SIDE2
    convective: 0
    radiative:  -0
    total:      0
    Temperature : min = 293.55, max = 293.55, average = 293.55
room_FLOOR
    convective: 0
    radiative:  -0
    total:      0
    Temperature : min = 293.55, max = 293.55, average = 293.55
room_CEILING
    convective: 0
    radiative:  -0
    total:      0
    Temperature : min = 293.55, max = 293.55, average = 293.55
room_BACK
    convective: 0
    radiative:  -0
    total:      0
    Temperature : min = 293.55, max = 293.55, average = 293.55
room_SIDE1
    convective: 0
    radiative:  -0
    total:      0
    Temperature : min = 293.55, max = 293.55, average = 293.55
manikin
    convective: 1918.61557
    radiative:  -0
    total:      1918.61557
    Temperature : min = 307.15, max = 307.15, average = 307.15

yPlusRAS yplusRAS output:
    patch room_SIDE2 y+ : min = 0.628826338, max = 2.88619683, average = 2.70844379
    patch room_FLOOR y+ : min = 0.160969906, max = 2.88619649, average = 1.86929758
    patch room_CEILING y+ : min = 0.747111756, max = 2.8861965, average = 2.67122461
    patch room_BACK y+ : min = 1.00747525, max = 6.33815513, average = 1.42396152
    patch room_SIDE1 y+ : min = 0.628826834, max = 2.88619682, average = 2.70843579
    patch manikin y+ : min = 0.0548866625, max = 2.82299245, average = 0.322204425

yPlusRASLowRe yplusRASLowRe output:
room_SIDE2
    y+ : min = 0, max = 0, average = 0
    y : min = 0.000544684214, max = 0.00250000001, average = 0.00234603179
room_FLOOR
    y+ : min = 0, max = 0, average = 0
    y : min = 0.000139430812, max = 0.00249999971, average = 0.00161917022
room_CEILING
    y+ : min = 0, max = 0, average = 0
    y : min = 0.000647142072, max = 0.00249999973, average = 0.00231379284
room_BACK
    y+ : min = 0, max = 0, average = 0
    y : min = 0.000872666798, max = 0.00549005797, average = 0.00123342378
room_SIDE1
    y+ : min = 0, max = 0, average = 0
    y : min = 0.000544684643, max = 0.0025, average = 0.00234602486
manikin
    y+ : min = 0, max = 0, average = 0
    y : min = 4.97449872e-05, max = 0.00255854003, average = 0.000292020944

forceCoeffs forceCoeffs1 output:
    Cm    = -4499.86349
    Cd    = -99.5598637
    Cl    = -8664.87679
    Cl(f) = -8832.30188
    Cl(r) = 167.425092

Time = 24

ExecutionTime = 36.18 s  ClockTime = 36 s

wallHeatFlux wallHeatFlux output:

Wall heat fluxes [W]
room_SIDE2
    convective: 0
    radiative:  -0
    total:      0
    Temperature : min = 293.55, max = 293.55, average = 293.55
room_FLOOR
    convective: 0
    radiative:  -0
    total:      0
    Temperature : min = 293.55, max = 293.55, average = 293.55
room_CEILING
    convective: 0
    radiative:  -0
    total:      0
    Temperature : min = 293.55, max = 293.55, average = 293.55
room_BACK
    convective: 0
    radiative:  -0
    total:      0
    Temperature : min = 293.55, max = 293.55, average = 293.55
room_SIDE1
    convective: 0
    radiative:  -0
    total:      0
    Temperature : min = 293.55, max = 293.55, average = 293.55
manikin
    convective: 1918.61557
    radiative:  -0
    total:      1918.61557
    Temperature : min = 307.15, max = 307.15, average = 307.15

yPlusRAS yplusRAS output:
    patch room_SIDE2 y+ : min = 0.628826338, max = 2.88619683, average = 2.70844379
    patch room_FLOOR y+ : min = 0.160969906, max = 2.88619649, average = 1.86929758
    patch room_CEILING y+ : min = 0.747111756, max = 2.8861965, average = 2.67122461
    patch room_BACK y+ : min = 1.00747525, max = 6.33815513, average = 1.42396152
    patch room_SIDE1 y+ : min = 0.628826834, max = 2.88619682, average = 2.70843579
    patch manikin y+ : min = 0.0548866625, max = 2.82299245, average = 0.322204425

yPlusRASLowRe yplusRASLowRe output:
room_SIDE2
    y+ : min = 0, max = 0, average = 0
    y : min = 0.000544684214, max = 0.00250000001, average = 0.00234603179
room_FLOOR
    y+ : min = 0, max = 0, average = 0
    y : min = 0.000139430812, max = 0.00249999971, average = 0.00161917022
room_CEILING
    y+ : min = 0, max = 0, average = 0
    y : min = 0.000647142072, max = 0.00249999973, average = 0.00231379284
room_BACK
    y+ : min = 0, max = 0, average = 0
    y : min = 0.000872666798, max = 0.00549005797, average = 0.00123342378
room_SIDE1
    y+ : min = 0, max = 0, average = 0
    y : min = 0.000544684643, max = 0.0025, average = 0.00234602486
manikin
    y+ : min = 0, max = 0, average = 0
    y : min = 4.97449872e-05, max = 0.00255854003, average = 0.000292020944

forceCoeffs forceCoeffs1 output:
    Cm    = -4499.86349
    Cd    = -99.5598637
    Cl    = -8664.87679
    Cl(f) = -8832.30188
    Cl(r) = 167.425092

Time = 25

ExecutionTime = 37.12 s  ClockTime = 37 s

wallHeatFlux wallHeatFlux output:

Wall heat fluxes [W]
room_SIDE2
    convective: 0
    radiative:  -0
    total:      0
    Temperature : min = 293.55, max = 293.55, average = 293.55
room_FLOOR
    convective: 0
    radiative:  -0
    total:      0
    Temperature : min = 293.55, max = 293.55, average = 293.55
room_CEILING
    convective: 0
    radiative:  -0
    total:      0
    Temperature : min = 293.55, max = 293.55, average = 293.55
room_BACK
    convective: 0
    radiative:  -0
    total:      0
    Temperature : min = 293.55, max = 293.55, average = 293.55
room_SIDE1
    convective: 0
    radiative:  -0
    total:      0
    Temperature : min = 293.55, max = 293.55, average = 293.55
manikin
    convective: 1918.61557
    radiative:  -0
    total:      1918.61557
    Temperature : min = 307.15, max = 307.15, average = 307.15

yPlusRAS yplusRAS output:
    patch room_SIDE2 y+ : min = 0.628826338, max = 2.88619683, average = 2.70844379
    patch room_FLOOR y+ : min = 0.160969906, max = 2.88619649, average = 1.86929758
    patch room_CEILING y+ : min = 0.747111756, max = 2.8861965, average = 2.67122461
    patch room_BACK y+ : min = 1.00747525, max = 6.33815513, average = 1.42396152
    patch room_SIDE1 y+ : min = 0.628826834, max = 2.88619682, average = 2.70843579
    patch manikin y+ : min = 0.0548866625, max = 2.82299245, average = 0.322204425

yPlusRASLowRe yplusRASLowRe output:
room_SIDE2
    y+ : min = 0, max = 0, average = 0
    y : min = 0.000544684214, max = 0.00250000001, average = 0.00234603179
room_FLOOR
    y+ : min = 0, max = 0, average = 0
    y : min = 0.000139430812, max = 0.00249999971, average = 0.00161917022
room_CEILING
    y+ : min = 0, max = 0, average = 0
    y : min = 0.000647142072, max = 0.00249999973, average = 0.00231379284
room_BACK
    y+ : min = 0, max = 0, average = 0
    y : min = 0.000872666798, max = 0.00549005797, average = 0.00123342378
room_SIDE1
    y+ : min = 0, max = 0, average = 0
    y : min = 0.000544684643, max = 0.0025, average = 0.00234602486
manikin
    y+ : min = 0, max = 0, average = 0
    y : min = 4.97449872e-05, max = 0.00255854003, average = 0.000292020944

forceCoeffs forceCoeffs1 output:
    Cm    = -4499.86349
    Cd    = -99.5598637
    Cl    = -8664.87679
    Cl(f) = -8832.30188
    Cl(r) = 167.425092

Time = 26

ExecutionTime = 38.02 s  ClockTime = 38 s

wallHeatFlux wallHeatFlux output:

Wall heat fluxes [W]
room_SIDE2
    convective: 0
    radiative:  -0
    total:      0
    Temperature : min = 293.55, max = 293.55, average = 293.55
room_FLOOR
    convective: 0
    radiative:  -0
    total:      0
    Temperature : min = 293.55, max = 293.55, average = 293.55
room_CEILING
    convective: 0
    radiative:  -0
    total:      0
    Temperature : min = 293.55, max = 293.55, average = 293.55
room_BACK
    convective: 0
    radiative:  -0
    total:      0
    Temperature : min = 293.55, max = 293.55, average = 293.55
room_SIDE1
    convective: 0
    radiative:  -0
    total:      0
    Temperature : min = 293.55, max = 293.55, average = 293.55
manikin
    convective: 1918.61557
    radiative:  -0
    total:      1918.61557
    Temperature : min = 307.15, max = 307.15, average = 307.15

yPlusRAS yplusRAS output:
    patch room_SIDE2 y+ : min = 0.628826338, max = 2.88619683, average = 2.70844379
    patch room_FLOOR y+ : min = 0.160969906, max = 2.88619649, average = 1.86929758
    patch room_CEILING y+ : min = 0.747111756, max = 2.8861965, average = 2.67122461
    patch room_BACK y+ : min = 1.00747525, max = 6.33815513, average = 1.42396152
    patch room_SIDE1 y+ : min = 0.628826834, max = 2.88619682, average = 2.70843579
    patch manikin y+ : min = 0.0548866625, max = 2.82299245, average = 0.322204425

yPlusRASLowRe yplusRASLowRe output:
room_SIDE2
    y+ : min = 0, max = 0, average = 0
    y : min = 0.000544684214, max = 0.00250000001, average = 0.00234603179
room_FLOOR
    y+ : min = 0, max = 0, average = 0
    y : min = 0.000139430812, max = 0.00249999971, average = 0.00161917022
room_CEILING
    y+ : min = 0, max = 0, average = 0
    y : min = 0.000647142072, max = 0.00249999973, average = 0.00231379284
room_BACK
    y+ : min = 0, max = 0, average = 0
    y : min = 0.000872666798, max = 0.00549005797, average = 0.00123342378
room_SIDE1
    y+ : min = 0, max = 0, average = 0
    y : min = 0.000544684643, max = 0.0025, average = 0.00234602486
manikin
    y+ : min = 0, max = 0, average = 0
    y : min = 4.97449872e-05, max = 0.00255854003, average = 0.000292020944

forceCoeffs forceCoeffs1 output:
    Cm    = -4499.86349
    Cd    = -99.5598637
    Cl    = -8664.87679
    Cl(f) = -8832.30188
    Cl(r) = 167.425092

Time = 27

ExecutionTime = 38.94 s  ClockTime = 39 s

wallHeatFlux wallHeatFlux output:

Wall heat fluxes [W]
room_SIDE2
    convective: 0
    radiative:  -0
    total:      0
    Temperature : min = 293.55, max = 293.55, average = 293.55
room_FLOOR
    convective: 0
    radiative:  -0
    total:      0
    Temperature : min = 293.55, max = 293.55, average = 293.55
room_CEILING
    convective: 0
    radiative:  -0
    total:      0
    Temperature : min = 293.55, max = 293.55, average = 293.55
room_BACK
    convective: 0
    radiative:  -0
    total:      0
    Temperature : min = 293.55, max = 293.55, average = 293.55
room_SIDE1
    convective: 0
    radiative:  -0
    total:      0
    Temperature : min = 293.55, max = 293.55, average = 293.55
manikin
    convective: 1918.61557
    radiative:  -0
    total:      1918.61557
    Temperature : min = 307.15, max = 307.15, average = 307.15

yPlusRAS yplusRAS output:
    patch room_SIDE2 y+ : min = 0.628826338, max = 2.88619683, average = 2.70844379
    patch room_FLOOR y+ : min = 0.160969906, max = 2.88619649, average = 1.86929758
    patch room_CEILING y+ : min = 0.747111756, max = 2.8861965, average = 2.67122461
    patch room_BACK y+ : min = 1.00747525, max = 6.33815513, average = 1.42396152
    patch room_SIDE1 y+ : min = 0.628826834, max = 2.88619682, average = 2.70843579
    patch manikin y+ : min = 0.0548866625, max = 2.82299245, average = 0.322204425

yPlusRASLowRe yplusRASLowRe output:
room_SIDE2
    y+ : min = 0, max = 0, average = 0
    y : min = 0.000544684214, max = 0.00250000001, average = 0.00234603179
room_FLOOR
    y+ : min = 0, max = 0, average = 0
    y : min = 0.000139430812, max = 0.00249999971, average = 0.00161917022
room_CEILING
    y+ : min = 0, max = 0, average = 0
    y : min = 0.000647142072, max = 0.00249999973, average = 0.00231379284
room_BACK
    y+ : min = 0, max = 0, average = 0
    y : min = 0.000872666798, max = 0.00549005797, average = 0.00123342378
room_SIDE1
    y+ : min = 0, max = 0, average = 0
    y : min = 0.000544684643, max = 0.0025, average = 0.00234602486
manikin
    y+ : min = 0, max = 0, average = 0
    y : min = 4.97449872e-05, max = 0.00255854003, average = 0.000292020944

forceCoeffs forceCoeffs1 output:
    Cm    = -4499.86349
    Cd    = -99.5598637
    Cl    = -8664.87679
    Cl(f) = -8832.30188
    Cl(r) = 167.425092

Time = 28

ExecutionTime = 39.88 s  ClockTime = 40 s

wallHeatFlux wallHeatFlux output:

Wall heat fluxes [W]
room_SIDE2
    convective: 0
    radiative:  -0
    total:      0
    Temperature : min = 293.55, max = 293.55, average = 293.55
room_FLOOR
    convective: 0
    radiative:  -0
    total:      0
    Temperature : min = 293.55, max = 293.55, average = 293.55
room_CEILING
    convective: 0
    radiative:  -0
    total:      0
    Temperature : min = 293.55, max = 293.55, average = 293.55
room_BACK
    convective: 0
    radiative:  -0
    total:      0
    Temperature : min = 293.55, max = 293.55, average = 293.55
room_SIDE1
    convective: 0
    radiative:  -0
    total:      0
    Temperature : min = 293.55, max = 293.55, average = 293.55
manikin
    convective: 1918.61557
    radiative:  -0
    total:      1918.61557
    Temperature : min = 307.15, max = 307.15, average = 307.15

yPlusRAS yplusRAS output:
    patch room_SIDE2 y+ : min = 0.628826338, max = 2.88619683, average = 2.70844379
    patch room_FLOOR y+ : min = 0.160969906, max = 2.88619649, average = 1.86929758
    patch room_CEILING y+ : min = 0.747111756, max = 2.8861965, average = 2.67122461
    patch room_BACK y+ : min = 1.00747525, max = 6.33815513, average = 1.42396152
    patch room_SIDE1 y+ : min = 0.628826834, max = 2.88619682, average = 2.70843579
    patch manikin y+ : min = 0.0548866625, max = 2.82299245, average = 0.322204425

yPlusRASLowRe yplusRASLowRe output:
room_SIDE2
    y+ : min = 0, max = 0, average = 0
    y : min = 0.000544684214, max = 0.00250000001, average = 0.00234603179
room_FLOOR
    y+ : min = 0, max = 0, average = 0
    y : min = 0.000139430812, max = 0.00249999971, average = 0.00161917022
room_CEILING
    y+ : min = 0, max = 0, average = 0
    y : min = 0.000647142072, max = 0.00249999973, average = 0.00231379284
room_BACK
    y+ : min = 0, max = 0, average = 0
    y : min = 0.000872666798, max = 0.00549005797, average = 0.00123342378
room_SIDE1
    y+ : min = 0, max = 0, average = 0
    y : min = 0.000544684643, max = 0.0025, average = 0.00234602486
manikin
    y+ : min = 0, max = 0, average = 0
    y : min = 4.97449872e-05, max = 0.00255854003, average = 0.000292020944

forceCoeffs forceCoeffs1 output:
    Cm    = -4499.86349
    Cd    = -99.5598637
    Cl    = -8664.87679
    Cl(f) = -8832.30188
    Cl(r) = 167.425092

Time = 29

ExecutionTime = 40.85 s  ClockTime = 41 s

wallHeatFlux wallHeatFlux output:

Wall heat fluxes [W]
room_SIDE2
    convective: 0
    radiative:  -0
    total:      0
    Temperature : min = 293.55, max = 293.55, average = 293.55
room_FLOOR
    convective: 0
    radiative:  -0
    total:      0
    Temperature : min = 293.55, max = 293.55, average = 293.55
room_CEILING
    convective: 0
    radiative:  -0
    total:      0
    Temperature : min = 293.55, max = 293.55, average = 293.55
room_BACK
    convective: 0
    radiative:  -0
    total:      0
    Temperature : min = 293.55, max = 293.55, average = 293.55
room_SIDE1
    convective: 0
    radiative:  -0
    total:      0
    Temperature : min = 293.55, max = 293.55, average = 293.55
manikin
    convective: 1918.61557
    radiative:  -0
    total:      1918.61557
    Temperature : min = 307.15, max = 307.15, average = 307.15

yPlusRAS yplusRAS output:
    patch room_SIDE2 y+ : min = 0.628826338, max = 2.88619683, average = 2.70844379
    patch room_FLOOR y+ : min = 0.160969906, max = 2.88619649, average = 1.86929758
    patch room_CEILING y+ : min = 0.747111756, max = 2.8861965, average = 2.67122461
    patch room_BACK y+ : min = 1.00747525, max = 6.33815513, average = 1.42396152
    patch room_SIDE1 y+ : min = 0.628826834, max = 2.88619682, average = 2.70843579
    patch manikin y+ : min = 0.0548866625, max = 2.82299245, average = 0.322204425

yPlusRASLowRe yplusRASLowRe output:
room_SIDE2
    y+ : min = 0, max = 0, average = 0
    y : min = 0.000544684214, max = 0.00250000001, average = 0.00234603179
room_FLOOR
    y+ : min = 0, max = 0, average = 0
    y : min = 0.000139430812, max = 0.00249999971, average = 0.00161917022
room_CEILING
    y+ : min = 0, max = 0, average = 0
    y : min = 0.000647142072, max = 0.00249999973, average = 0.00231379284
room_BACK
    y+ : min = 0, max = 0, average = 0
    y : min = 0.000872666798, max = 0.00549005797, average = 0.00123342378
room_SIDE1
    y+ : min = 0, max = 0, average = 0
    y : min = 0.000544684643, max = 0.0025, average = 0.00234602486
manikin
    y+ : min = 0, max = 0, average = 0
    y : min = 4.97449872e-05, max = 0.00255854003, average = 0.000292020944

forceCoeffs forceCoeffs1 output:
    Cm    = -4499.86349
    Cd    = -99.5598637
    Cl    = -8664.87679
    Cl(f) = -8832.30188
    Cl(r) = 167.425092

Time = 30

ExecutionTime = 41.72 s  ClockTime = 42 s

wallHeatFlux wallHeatFlux output:

Wall heat fluxes [W]
room_SIDE2
    convective: 0
    radiative:  -0
    total:      0
    Temperature : min = 293.55, max = 293.55, average = 293.55
room_FLOOR
    convective: 0
    radiative:  -0
    total:      0
    Temperature : min = 293.55, max = 293.55, average = 293.55
room_CEILING
    convective: 0
    radiative:  -0
    total:      0
    Temperature : min = 293.55, max = 293.55, average = 293.55
room_BACK
    convective: 0
    radiative:  -0
    total:      0
    Temperature : min = 293.55, max = 293.55, average = 293.55
room_SIDE1
    convective: 0
    radiative:  -0
    total:      0
    Temperature : min = 293.55, max = 293.55, average = 293.55
manikin
    convective: 1918.61557
    radiative:  -0
    total:      1918.61557
    Temperature : min = 307.15, max = 307.15, average = 307.15

yPlusRAS yplusRAS output:
    patch room_SIDE2 y+ : min = 0.628826338, max = 2.88619683, average = 2.70844379
    patch room_FLOOR y+ : min = 0.160969906, max = 2.88619649, average = 1.86929758
    patch room_CEILING y+ : min = 0.747111756, max = 2.8861965, average = 2.67122461
    patch room_BACK y+ : min = 1.00747525, max = 6.33815513, average = 1.42396152
    patch room_SIDE1 y+ : min = 0.628826834, max = 2.88619682, average = 2.70843579
    patch manikin y+ : min = 0.0548866625, max = 2.82299245, average = 0.322204425

yPlusRASLowRe yplusRASLowRe output:
room_SIDE2
    y+ : min = 0, max = 0, average = 0
    y : min = 0.000544684214, max = 0.00250000001, average = 0.00234603179
room_FLOOR
    y+ : min = 0, max = 0, average = 0
    y : min = 0.000139430812, max = 0.00249999971, average = 0.00161917022
room_CEILING
    y+ : min = 0, max = 0, average = 0
    y : min = 0.000647142072, max = 0.00249999973, average = 0.00231379284
room_BACK
    y+ : min = 0, max = 0, average = 0
    y : min = 0.000872666798, max = 0.00549005797, average = 0.00123342378
room_SIDE1
    y+ : min = 0, max = 0, average = 0
    y : min = 0.000544684643, max = 0.0025, average = 0.00234602486
manikin
    y+ : min = 0, max = 0, average = 0
    y : min = 4.97449872e-05, max = 0.00255854003, average = 0.000292020944

forceCoeffs forceCoeffs1 output:
    Cm    = -4499.86349
    Cd    = -99.5598637
    Cl    = -8664.87679
    Cl(f) = -8832.30188
    Cl(r) = 167.425092

Time = 31

ExecutionTime = 42.65 s  ClockTime = 43 s

wallHeatFlux wallHeatFlux output:

Wall heat fluxes [W]
room_SIDE2
    convective: 0
    radiative:  -0
    total:      0
    Temperature : min = 293.55, max = 293.55, average = 293.55
room_FLOOR
    convective: 0
    radiative:  -0
    total:      0
    Temperature : min = 293.55, max = 293.55, average = 293.55
room_CEILING
    convective: 0
    radiative:  -0
    total:      0
    Temperature : min = 293.55, max = 293.55, average = 293.55
room_BACK
    convective: 0
    radiative:  -0
    total:      0
    Temperature : min = 293.55, max = 293.55, average = 293.55
room_SIDE1
    convective: 0
    radiative:  -0
    total:      0
    Temperature : min = 293.55, max = 293.55, average = 293.55
manikin
    convective: 1918.61557
    radiative:  -0
    total:      1918.61557
    Temperature : min = 307.15, max = 307.15, average = 307.15

yPlusRAS yplusRAS output:
    patch room_SIDE2 y+ : min = 0.628826338, max = 2.88619683, average = 2.70844379
    patch room_FLOOR y+ : min = 0.160969906, max = 2.88619649, average = 1.86929758
    patch room_CEILING y+ : min = 0.747111756, max = 2.8861965, average = 2.67122461
    patch room_BACK y+ : min = 1.00747525, max = 6.33815513, average = 1.42396152
    patch room_SIDE1 y+ : min = 0.628826834, max = 2.88619682, average = 2.70843579
    patch manikin y+ : min = 0.0548866625, max = 2.82299245, average = 0.322204425

yPlusRASLowRe yplusRASLowRe output:
room_SIDE2
    y+ : min = 0, max = 0, average = 0
    y : min = 0.000544684214, max = 0.00250000001, average = 0.00234603179
room_FLOOR
    y+ : min = 0, max = 0, average = 0
    y : min = 0.000139430812, max = 0.00249999971, average = 0.00161917022
room_CEILING
    y+ : min = 0, max = 0, average = 0
    y : min = 0.000647142072, max = 0.00249999973, average = 0.00231379284
room_BACK
    y+ : min = 0, max = 0, average = 0
    y : min = 0.000872666798, max = 0.00549005797, average = 0.00123342378
room_SIDE1
    y+ : min = 0, max = 0, average = 0
    y : min = 0.000544684643, max = 0.0025, average = 0.00234602486
manikin
    y+ : min = 0, max = 0, average = 0
    y : min = 4.97449872e-05, max = 0.00255854003, average = 0.000292020944

forceCoeffs forceCoeffs1 output:
    Cm    = -4499.86349
    Cd    = -99.5598637
    Cl    = -8664.87679
    Cl(f) = -8832.30188
    Cl(r) = 167.425092

Time = 32

ExecutionTime = 43.64 s  ClockTime = 44 s

wallHeatFlux wallHeatFlux output:

Wall heat fluxes [W]
room_SIDE2
    convective: 0
[...]
room_SIDE1
    y+ : min = 0, max = 0, average = 0
    y : min = 0.000544684643, max = 0.0025, average = 0.00234602486
manikin
    y+ : min = 0, max = 0, average = 0
    y : min = 4.97449872e-05, max = 0.00255854003, average = 0.000292020944

forceCoeffs forceCoeffs1 output:
    Cm    = -4499.86349
    Cd    = -99.5598637
    Cl    = -8664.87679
    Cl(f) = -8832.30188
    Cl(r) = 167.425092

Time = 115

ExecutionTime = 1637.34 s  ClockTime = 1639 s

wallHeatFlux wallHeatFlux output:

Wall heat fluxes [W]
room_SIDE2
    convective: 0
    radiative:  -23.4376682
    total:      -23.4376682
    Temperature : min = 293.55, max = 293.55, average = 293.55
room_FLOOR
    convective: 0
    radiative:  -23.8297894
    total:      -23.8297894
    Temperature : min = 293.55, max = 293.55, average = 293.55
room_CEILING
    convective: 0
    radiative:  -10.490211
    total:      -10.490211
    Temperature : min = 293.55, max = 293.55, average = 293.55
room_BACK
    convective: 0
    radiative:  -8.47148971
    total:      -8.47148971
    Temperature : min = 293.55, max = 293.55, average = 293.55
room_SIDE1
    convective: 0
    radiative:  -23.2212918
    total:      -23.2212918
    Temperature : min = 293.55, max = 293.55, average = 293.55
manikin
    convective: 1918.61557
    radiative:  101.440886
    total:      2020.05645
    Temperature : min = 307.15, max = 307.15, average = 307.15

yPlusRAS yplusRAS output:
    patch room_SIDE2 y+ : min = 0.628826338, max = 2.88619683, average = 2.70844379
    patch room_FLOOR y+ : min = 0.160969906, max = 2.88619649, average = 1.86929758
    patch room_CEILING y+ : min = 0.747111756, max = 2.8861965, average = 2.67122461
    patch room_BACK y+ : min = 1.00747525, max = 6.33815513, average = 1.42396152
    patch room_SIDE1 y+ : min = 0.628826834, max = 2.88619682, average = 2.70843579
    patch manikin y+ : min = 0.0548866625, max = 2.82299245, average = 0.322204425

yPlusRASLowRe yplusRASLowRe output:
room_SIDE2
    y+ : min = 0, max = 0, average = 0
    y : min = 0.000544684214, max = 0.00250000001, average = 0.00234603179
room_FLOOR
    y+ : min = 0, max = 0, average = 0
    y : min = 0.000139430812, max = 0.00249999971, average = 0.00161917022
room_CEILING
    y+ : min = 0, max = 0, average = 0
    y : min = 0.000647142072, max = 0.00249999973, average = 0.00231379284
room_BACK
    y+ : min = 0, max = 0, average = 0
    y : min = 0.000872666798, max = 0.00549005797, average = 0.00123342378
room_SIDE1
    y+ : min = 0, max = 0, average = 0
    y : min = 0.000544684643, max = 0.0025, average = 0.00234602486
manikin
    y+ : min = 0, max = 0, average = 0
    y : min = 4.97449872e-05, max = 0.00255854003, average = 0.000292020944

forceCoeffs forceCoeffs1 output:
    Cm    = -4499.86349
    Cd    = -99.5598637
    Cl    = -8664.87679
    Cl(f) = -8832.30188
    Cl(r) = 167.425092

Time = 116

ExecutionTime = 1638.15 s  ClockTime = 1640 s

wallHeatFlux wallHeatFlux output:

Wall heat fluxes [W]
room_SIDE2
    convective: 0
    radiative:  -23.4376682
    total:      -23.4376682
    Temperature : min = 293.55, max = 293.55, average = 293.55
room_FLOOR
    convective: 0
    radiative:  -23.8297894
    total:      -23.8297894
    Temperature : min = 293.55, max = 293.55, average = 293.55
room_CEILING
    convective: 0
    radiative:  -10.490211
    total:      -10.490211
    Temperature : min = 293.55, max = 293.55, average = 293.55
room_BACK
    convective: 0
    radiative:  -8.47148971
    total:      -8.47148971
    Temperature : min = 293.55, max = 293.55, average = 293.55
room_SIDE1
    convective: 0
    radiative:  -23.2212918
    total:      -23.2212918
    Temperature : min = 293.55, max = 293.55, average = 293.55
manikin
    convective: 1918.61557
    radiative:  101.440886
    total:      2020.05645
    Temperature : min = 307.15, max = 307.15, average = 307.15

yPlusRAS yplusRAS output:
    patch room_SIDE2 y+ : min = 0.628826338, max = 2.88619683, average = 2.70844379
    patch room_FLOOR y+ : min = 0.160969906, max = 2.88619649, average = 1.86929758
    patch room_CEILING y+ : min = 0.747111756, max = 2.8861965, average = 2.67122461
    patch room_BACK y+ : min = 1.00747525, max = 6.33815513, average = 1.42396152
    patch room_SIDE1 y+ : min = 0.628826834, max = 2.88619682, average = 2.70843579
    patch manikin y+ : min = 0.0548866625, max = 2.82299245, average = 0.322204425

yPlusRASLowRe yplusRASLowRe output:
room_SIDE2
    y+ : min = 0, max = 0, average = 0
    y : min = 0.000544684214, max = 0.00250000001, average = 0.00234603179
room_FLOOR
    y+ : min = 0, max = 0, average = 0
    y : min = 0.000139430812, max = 0.00249999971, average = 0.00161917022
room_CEILING
    y+ : min = 0, max = 0, average = 0
    y : min = 0.000647142072, max = 0.00249999973, average = 0.00231379284
room_BACK
    y+ : min = 0, max = 0, average = 0
    y : min = 0.000872666798, max = 0.00549005797, average = 0.00123342378
room_SIDE1
    y+ : min = 0, max = 0, average = 0
    y : min = 0.000544684643, max = 0.0025, average = 0.00234602486
manikin
    y+ : min = 0, max = 0, average = 0
    y : min = 4.97449872e-05, max = 0.00255854003, average = 0.000292020944

forceCoeffs forceCoeffs1 output:
    Cm    = -4499.86349
    Cd    = -99.5598637
    Cl    = -8664.87679
    Cl(f) = -8832.30188
    Cl(r) = 167.425092

Time = 117

ExecutionTime = 1638.98 s  ClockTime = 1641 s

wallHeatFlux wallHeatFlux output:

Wall heat fluxes [W]
room_SIDE2
    convective: 0
    radiative:  -23.4376682
    total:      -23.4376682
    Temperature : min = 293.55, max = 293.55, average = 293.55
room_FLOOR
    convective: 0
    radiative:  -23.8297894
    total:      -23.8297894
    Temperature : min = 293.55, max = 293.55, average = 293.55
room_CEILING
    convective: 0
    radiative:  -10.490211
    total:      -10.490211
    Temperature : min = 293.55, max = 293.55, average = 293.55
room_BACK
    convective: 0
    radiative:  -8.47148971
    total:      -8.47148971
    Temperature : min = 293.55, max = 293.55, average = 293.55
room_SIDE1
    convective: 0
    radiative:  -23.2212918
    total:      -23.2212918
    Temperature : min = 293.55, max = 293.55, average = 293.55
manikin
    convective: 1918.61557
    radiative:  101.440886
    total:      2020.05645
    Temperature : min = 307.15, max = 307.15, average = 307.15

yPlusRAS yplusRAS output:
    patch room_SIDE2 y+ : min = 0.628826338, max = 2.88619683, average = 2.70844379
    patch room_FLOOR y+ : min = 0.160969906, max = 2.88619649, average = 1.86929758
    patch room_CEILING y+ : min = 0.747111756, max = 2.8861965, average = 2.67122461
    patch room_BACK y+ : min = 1.00747525, max = 6.33815513, average = 1.42396152
    patch room_SIDE1 y+ : min = 0.628826834, max = 2.88619682, average = 2.70843579
    patch manikin y+ : min = 0.0548866625, max = 2.82299245, average = 0.322204425

yPlusRASLowRe yplusRASLowRe output:
room_SIDE2
    y+ : min = 0, max = 0, average = 0
    y : min = 0.000544684214, max = 0.00250000001, average = 0.00234603179
room_FLOOR
    y+ : min = 0, max = 0, average = 0
    y : min = 0.000139430812, max = 0.00249999971, average = 0.00161917022
room_CEILING
    y+ : min = 0, max = 0, average = 0
    y : min = 0.000647142072, max = 0.00249999973, average = 0.00231379284
room_BACK
    y+ : min = 0, max = 0, average = 0
    y : min = 0.000872666798, max = 0.00549005797, average = 0.00123342378
room_SIDE1
    y+ : min = 0, max = 0, average = 0
    y : min = 0.000544684643, max = 0.0025, average = 0.00234602486
manikin
    y+ : min = 0, max = 0, average = 0
    y : min = 4.97449872e-05, max = 0.00255854003, average = 0.000292020944

forceCoeffs forceCoeffs1 output:
    Cm    = -4499.86349
    Cd    = -99.5598637
    Cl    = -8664.87679
    Cl(f) = -8832.30188
    Cl(r) = 167.425092

Time = 118

ExecutionTime = 1639.81 s  ClockTime = 1641 s

wallHeatFlux wallHeatFlux output:

Wall heat fluxes [W]
room_SIDE2
    convective: 0
    radiative:  -23.4376682
    total:      -23.4376682
    Temperature : min = 293.55, max = 293.55, average = 293.55
room_FLOOR
    convective: 0
    radiative:  -23.8297894
    total:      -23.8297894
    Temperature : min = 293.55, max = 293.55, average = 293.55
room_CEILING
    convective: 0
    radiative:  -10.490211
    total:      -10.490211
    Temperature : min = 293.55, max = 293.55, average = 293.55
room_BACK
    convective: 0
    radiative:  -8.47148971
    total:      -8.47148971
    Temperature : min = 293.55, max = 293.55, average = 293.55
room_SIDE1
    convective: 0
    radiative:  -23.2212918
    total:      -23.2212918
    Temperature : min = 293.55, max = 293.55, average = 293.55
manikin
    convective: 1918.61557
    radiative:  101.440886
    total:      2020.05645
    Temperature : min = 307.15, max = 307.15, average = 307.15

yPlusRAS yplusRAS output:
    patch room_SIDE2 y+ : min = 0.628826338, max = 2.88619683, average = 2.70844379
    patch room_FLOOR y+ : min = 0.160969906, max = 2.88619649, average = 1.86929758
    patch room_CEILING y+ : min = 0.747111756, max = 2.8861965, average = 2.67122461
    patch room_BACK y+ : min = 1.00747525, max = 6.33815513, average = 1.42396152
    patch room_SIDE1 y+ : min = 0.628826834, max = 2.88619682, average = 2.70843579
    patch manikin y+ : min = 0.0548866625, max = 2.82299245, average = 0.322204425

yPlusRASLowRe yplusRASLowRe output:
room_SIDE2
    y+ : min = 0, max = 0, average = 0
    y : min = 0.000544684214, max = 0.00250000001, average = 0.00234603179
room_FLOOR
    y+ : min = 0, max = 0, average = 0
    y : min = 0.000139430812, max = 0.00249999971, average = 0.00161917022
room_CEILING
    y+ : min = 0, max = 0, average = 0
    y : min = 0.000647142072, max = 0.00249999973, average = 0.00231379284
room_BACK
    y+ : min = 0, max = 0, average = 0
    y : min = 0.000872666798, max = 0.00549005797, average = 0.00123342378
room_SIDE1
    y+ : min = 0, max = 0, average = 0
    y : min = 0.000544684643, max = 0.0025, average = 0.00234602486
manikin
    y+ : min = 0, max = 0, average = 0
    y : min = 4.97449872e-05, max = 0.00255854003, average = 0.000292020944

forceCoeffs forceCoeffs1 output:
    Cm    = -4499.86349
    Cd    = -99.5598637
    Cl    = -8664.87679
    Cl(f) = -8832.30188
    Cl(r) = 167.425092

Time = 119

ExecutionTime = 1640.66 s  ClockTime = 1642 s

wallHeatFlux wallHeatFlux output:

Wall heat fluxes [W]
room_SIDE2
    convective: 0
    radiative:  -23.4376682
    total:      -23.4376682
    Temperature : min = 293.55, max = 293.55, average = 293.55
room_FLOOR
    convective: 0
    radiative:  -23.8297894
    total:      -23.8297894
    Temperature : min = 293.55, max = 293.55, average = 293.55
room_CEILING
    convective: 0
    radiative:  -10.490211
    total:      -10.490211
    Temperature : min = 293.55, max = 293.55, average = 293.55
room_BACK
    convective: 0
    radiative:  -8.47148971
    total:      -8.47148971
    Temperature : min = 293.55, max = 293.55, average = 293.55
room_SIDE1
    convective: 0
    radiative:  -23.2212918
    total:      -23.2212918
    Temperature : min = 293.55, max = 293.55, average = 293.55
manikin
    convective: 1918.61557
    radiative:  101.440886
    total:      2020.05645
    Temperature : min = 307.15, max = 307.15, average = 307.15

yPlusRAS yplusRAS output:
    patch room_SIDE2 y+ : min = 0.628826338, max = 2.88619683, average = 2.70844379
    patch room_FLOOR y+ : min = 0.160969906, max = 2.88619649, average = 1.86929758
    patch room_CEILING y+ : min = 0.747111756, max = 2.8861965, average = 2.67122461
    patch room_BACK y+ : min = 1.00747525, max = 6.33815513, average = 1.42396152
    patch room_SIDE1 y+ : min = 0.628826834, max = 2.88619682, average = 2.70843579
    patch manikin y+ : min = 0.0548866625, max = 2.82299245, average = 0.322204425

yPlusRASLowRe yplusRASLowRe output:
room_SIDE2
    y+ : min = 0, max = 0, average = 0
    y : min = 0.000544684214, max = 0.00250000001, average = 0.00234603179
room_FLOOR
    y+ : min = 0, max = 0, average = 0
    y : min = 0.000139430812, max = 0.00249999971, average = 0.00161917022
room_CEILING
    y+ : min = 0, max = 0, average = 0
    y : min = 0.000647142072, max = 0.00249999973, average = 0.00231379284
room_BACK
    y+ : min = 0, max = 0, average = 0
    y : min = 0.000872666798, max = 0.00549005797, average = 0.00123342378
room_SIDE1
    y+ : min = 0, max = 0, average = 0
    y : min = 0.000544684643, max = 0.0025, average = 0.00234602486
manikin
    y+ : min = 0, max = 0, average = 0
    y : min = 4.97449872e-05, max = 0.00255854003, average = 0.000292020944

forceCoeffs forceCoeffs1 output:
    Cm    = -4499.86349
    Cd    = -99.5598637
    Cl    = -8664.87679
    Cl(f) = -8832.30188
    Cl(r) = 167.425092

Time = 120

ExecutionTime = 1641.48 s  ClockTime = 1643 s

wallHeatFlux wallHeatFlux output:

Wall heat fluxes [W]
room_SIDE2
    convective: 0
    radiative:  -23.4376682
    total:      -23.4376682
    Temperature : min = 293.55, max = 293.55, average = 293.55
room_FLOOR
    convective: 0
    radiative:  -23.8297894
    total:      -23.8297894
    Temperature : min = 293.55, max = 293.55, average = 293.55
room_CEILING
    convective: 0
    radiative:  -10.490211
    total:      -10.490211
    Temperature : min = 293.55, max = 293.55, average = 293.55
room_BACK
    convective: 0
    radiative:  -8.47148971
    total:      -8.47148971
    Temperature : min = 293.55, max = 293.55, average = 293.55
room_SIDE1
    convective: 0
    radiative:  -23.2212918
    total:      -23.2212918
    Temperature : min = 293.55, max = 293.55, average = 293.55
manikin
    convective: 1918.61557
    radiative:  101.440886
    total:      2020.05645
    Temperature : min = 307.15, max = 307.15, average = 307.15

yPlusRAS yplusRAS output:
    patch room_SIDE2 y+ : min = 0.628826338, max = 2.88619683, average = 2.70844379
    patch room_FLOOR y+ : min = 0.160969906, max = 2.88619649, average = 1.86929758
    patch room_CEILING y+ : min = 0.747111756, max = 2.8861965, average = 2.67122461
    patch room_BACK y+ : min = 1.00747525, max = 6.33815513, average = 1.42396152
    patch room_SIDE1 y+ : min = 0.628826834, max = 2.88619682, average = 2.70843579
    patch manikin y+ : min = 0.0548866625, max = 2.82299245, average = 0.322204425

yPlusRASLowRe yplusRASLowRe output:
room_SIDE2
    y+ : min = 0, max = 0, average = 0
    y : min = 0.000544684214, max = 0.00250000001, average = 0.00234603179
room_FLOOR
    y+ : min = 0, max = 0, average = 0
    y : min = 0.000139430812, max = 0.00249999971, average = 0.00161917022
room_CEILING
    y+ : min = 0, max = 0, average = 0
    y : min = 0.000647142072, max = 0.00249999973, average = 0.00231379284
room_BACK
    y+ : min = 0, max = 0, average = 0
    y : min = 0.000872666798, max = 0.00549005797, average = 0.00123342378
room_SIDE1
    y+ : min = 0, max = 0, average = 0
    y : min = 0.000544684643, max = 0.0025, average = 0.00234602486
manikin
    y+ : min = 0, max = 0, average = 0
    y : min = 4.97449872e-05, max = 0.00255854003, average = 0.000292020944

forceCoeffs forceCoeffs1 output:
    Cm    = -4499.86349
    Cd    = -99.5598637
    Cl    = -8664.87679
    Cl(f) = -8832.30188
    Cl(r) = 167.425092

Time = 121

Time Index = 121;    solver frequency = 10
Radiation solver iter: 0
GAMG:  Solving for ILambda_0_0, Initial residual = 5.03753691e-05, Final residual = 5.73311917e-06, No Iterations 3
GAMG:  Solving for ILambda_1_0, Initial residual = 5.41110371e-05, Final residual = 5.51262247e-06, No Iterations 3
GAMG:  Solving for ILambda_2_0, Initial residual = 6.52220341e-05, Final residual = 7.75789962e-06, No Iterations 3
GAMG:  Solving for ILambda_3_0, Initial residual = 2.41403313e-05, Final residual = 9.93280889e-06, No Iterations 2
GAMG:  Solving for ILambda_4_0, Initial residual = 1.78084263e-05, Final residual = 9.43161737e-06, No Iterations 2
GAMG:  Solving for ILambda_5_0, Initial residual = 1.3525245e-05, Final residual = 4.75557098e-06, No Iterations 2
GAMG:  Solving for ILambda_6_0, Initial residual = 8.53424777e-06, Final residual = 4.1602976e-06, No Iterations 1
GAMG:  Solving for ILambda_7_0, Initial residual = 4.40732627e-06, Final residual = 2.22342561e-06, No Iterations 1
GAMG:  Solving for ILambda_8_0, Initial residual = 9.14158566e-07, Final residual = 3.48411665e-07, No Iterations 1
GAMG:  Solving for ILambda_9_0, Initial residual = 7.50332605e-07, Final residual = 2.69024643e-07, No Iterations 1
GAMG:  Solving for ILambda_10_0, Initial residual = 6.71545797e-07, Final residual = 2.39305785e-07, No Iterations 1
GAMG:  Solving for ILambda_11_0, Initial residual = 9.01101333e-07, Final residual = 3.40960405e-07, No Iterations 1
GAMG:  Solving for ILambda_12_0, Initial residual = 2.11867962e-06, Final residual = 9.33012045e-07, No Iterations 1
GAMG:  Solving for ILambda_13_0, Initial residual = 5.1911198e-06, Final residual = 2.57397517e-06, No Iterations 1
GAMG:  Solving for ILambda_14_0, Initial residual = 1.19290351e-05, Final residual = 5.02491901e-06, No Iterations 2
GAMG:  Solving for ILambda_15_0, Initial residual = 1.35113786e-05, Final residual = 9.71102607e-06, No Iterations 2
GAMG:  Solving for ILambda_16_0, Initial residual = 1.80851427e-05, Final residual = 6.99588887e-06, No Iterations 2
GAMG:  Solving for ILambda_17_0, Initial residual = 3.77282082e-05, Final residual = 6.87365152e-06, No Iterations 3
GAMG:  Solving for ILambda_18_0, Initial residual = 3.19709546e-05, Final residual = 4.2861844e-06, No Iterations 3
GAMG:  Solving for ILambda_19_0, Initial residual = 4.12974072e-05, Final residual = 4.83490986e-06, No Iterations 3
GAMG:  Solving for ILambda_20_0, Initial residual = 2.73845718e-07, Final residual = 9.85222878e-08, No Iterations 1
GAMG:  Solving for ILambda_21_0, Initial residual = 2.2936119e-07, Final residual = 8.09143835e-08, No Iterations 1
GAMG:  Solving for ILambda_22_0, Initial residual = 2.06172901e-07, Final residual = 6.92238089e-08, No Iterations 1
GAMG:  Solving for ILambda_23_0, Initial residual = 1.86573031e-07, Final residual = 5.82873107e-08, No Iterations 1
GAMG:  Solving for ILambda_24_0, Initial residual = 1.85361567e-07, Final residual = 5.75012979e-08, No Iterations 1
GAMG:  Solving for ILambda_25_0, Initial residual = 1.90419992e-07, Final residual = 5.93318319e-08, No Iterations 1
GAMG:  Solving for ILambda_26_0, Initial residual = 1.71369651e-07, Final residual = 5.21024937e-08, No Iterations 1
GAMG:  Solving for ILambda_27_0, Initial residual = 1.80050439e-07, Final residual = 5.55507588e-08, No Iterations 1
GAMG:  Solving for ILambda_28_0, Initial residual = 2.09467419e-07, Final residual = 6.71209122e-08, No Iterations 1
GAMG:  Solving for ILambda_29_0, Initial residual = 2.77028135e-07, Final residual = 9.66181851e-08, No Iterations 1
GAMG:  Solving for ILambda_30_0, Initial residual = 2.73461393e-07, Final residual = 9.35684583e-08, No Iterations 1
GAMG:  Solving for ILambda_31_0, Initial residual = 2.13848973e-07, Final residual = 6.41560839e-08, No Iterations 1
GAMG:  Solving for ILambda_32_0, Initial residual = 1.88149171e-07, Final residual = 5.41650638e-08, No Iterations 1
GAMG:  Solving for ILambda_33_0, Initial residual = 1.83842798e-07, Final residual = 5.42092304e-08, No Iterations 1
GAMG:  Solving for ILambda_34_0, Initial residual = 2.0529997e-07, Final residual = 6.36882018e-08, No Iterations 1
GAMG:  Solving for ILambda_35_0, Initial residual = 1.99140113e-07, Final residual = 6.14807519e-08, No Iterations 1
GAMG:  Solving for ILambda_36_0, Initial residual = 1.80864133e-07, Final residual = 5.41226996e-08, No Iterations 1
GAMG:  Solving for ILambda_37_0, Initial residual = 1.9719398e-07, Final residual = 6.4587378e-08, No Iterations 1
GAMG:  Solving for ILambda_38_0, Initial residual = 2.1963537e-07, Final residual = 7.55485393e-08, No Iterations 1
GAMG:  Solving for ILambda_39_0, Initial residual = 2.68473485e-07, Final residual = 9.77663297e-08, No Iterations 1
