/*---------------------------------------------------------------------------*\
| =========                 |                                                 |
| \\      /  F ield         | OpenFOAM: The Open Source CFD Toolbox           |
|  \\    /   O peration     | Version:  2.3.1                                 |
|   \\  /    A nd           | Web:      www.OpenFOAM.org                      |
|    \\/     M anipulation  |                                                 |
\*---------------------------------------------------------------------------*/
Build  : 2.3.1-bcfaaa7b8660
Exec   : radiationFoam -parallel
Date   : May 29 2017
Time   : 18:14:34
Host   : "ubuntu"
PID    : 3781
Case   : /home/cong/Desktop/AIVC/Case5
nProcs : 4
Slaves : 
3
(
"ubuntu.3782"
"ubuntu.3783"
"ubuntu.3784"
)

Pstream initialized with:
    floatTransfer      : 0
    nProcsSimpleSum    : 0
    commsType          : nonBlocking
    polling iterations : 0
sigFpe : Enabling floating point exception trapping (FOAM_SIGFPE).
fileModificationChecking : Monitoring run-time modified files using timeStampMaster
allowSystemOperations : Allowing user-supplied system call operations

// * * * * * * * * * * * * * * * * * * * * * * * * * * * * * * * * * * * * * //
Create time

Create mesh for time = 0


Reading g
Reading thermophysical properties

Selecting thermodynamics package 
{
    type            heRhoThermo;
    mixture         pureMixture;
    transport       const;
    thermo          hConst;
    equationOfState perfectGas;
    specie          specie;
    energy          sensibleEnthalpy;
}

Reading field U

Reading/calculating face flux field phi

Creating turbulence model

Selecting RAS turbulence model kOmegaSST
kOmegaSSTCoeffs
{
    alphaK1         0.85;
    alphaK2         1;
    alphaOmega1     0.5;
    alphaOmega2     0.856;
    Prt             1;
    gamma1          0.555555556;
    gamma2          0.44;
    beta1           0.075;
    beta2           0.0828;
    betaStar        0.09;
    a1              0.31;
    b1              1;
    c1              10;
    F3              false;
}

Calculating field g.h

Reading field p_rgh

No finite volume options present

Selecting radiationModel fvDOM
Selecting absorptionEmissionModel none
Selecting scatterModel none
Selecting sootModel none
fvDOM : Allocated 192 rays with average orientation:
	I0 : omega : 	0.0199282918
	I1 : omega : 	0.0199282918
	I2 : omega : 	0.0199282918
	I3 : omega : 	0.0199282918
	I4 : omega : 	0.0199282918
	I5 : omega : 	0.0199282918
	I6 : omega : 	0.0199282918
	I7 : omega : 	0.0199282918
	I8 : omega : 	0.0199282918
	I9 : omega : 	0.0199282918
	I10 : omega : 	0.0199282918
	I11 : omega : 	0.0199282918
	I12 : omega : 	0.0199282918
	I13 : omega : 	0.0199282918
	I14 : omega : 	0.0199282918
	I15 : omega : 	0.0199282918
	I16 : omega : 	0.0199282918
	I17 : omega : 	0.0199282918
	I18 : omega : 	0.0199282918
	I19 : omega : 	0.0199282918
	I20 : omega : 	0.0199282918
	I21 : omega : 	0.0199282918
	I22 : omega : 	0.0199282918
	I23 : omega : 	0.0199282918
	I24 : omega : 	0.0567509736
	I25 : omega : 	0.0567509736
	I26 : omega : 	0.0567509736
	I27 : omega : 	0.0567509736
	I28 : omega : 	0.0567509736
	I29 : omega : 	0.0567509736
	I30 : omega : 	0.0567509736
	I31 : omega : 	0.0567509736
	I32 : omega : 	0.0567509736
	I33 : omega : 	0.0567509736
	I34 : omega : 	0.0567509736
	I35 : omega : 	0.0567509736
	I36 : omega : 	0.0567509736
	I37 : omega : 	0.0567509736
	I38 : omega : 	0.0567509736
	I39 : omega : 	0.0567509736
	I40 : omega : 	0.0567509736
	I41 : omega : 	0.0567509736
	I42 : omega : 	0.0567509736
	I43 : omega : 	0.0567509736
	I44 : omega : 	0.0567509736
	I45 : omega : 	0.0567509736
	I46 : omega : 	0.0567509736
	I47 : omega : 	0.0567509736
	I48 : omega : 	0.0849338341
	I49 : omega : 	0.0849338341
	I50 : omega : 	0.0849338341
	I51 : omega : 	0.0849338341
	I52 : omega : 	0.0849338341
	I53 : omega : 	0.0849338341
	I54 : omega : 	0.0849338341
	I55 : omega : 	0.0849338341
	I56 : omega : 	0.0849338341
	I57 : omega : 	0.0849338341
	I58 : omega : 	0.0849338341
	I59 : omega : 	0.0849338341
	I60 : omega : 	0.0849338341
	I61 : omega : 	0.0849338341
	I62 : omega : 	0.0849338341
	I63 : omega : 	0.0849338341
	I64 : omega : 	0.0849338341
	I65 : omega : 	0.0849338341
	I66 : omega : 	0.0849338341
	I67 : omega : 	0.0849338341
	I68 : omega : 	0.0849338341
	I69 : omega : 	0.0849338341
	I70 : omega : 	0.0849338341
	I71 : omega : 	0.0849338341
	I72 : omega : 	0.100186288
	I73 : omega : 	0.100186288
	I74 : omega : 	0.100186288
	I75 : omega : 	0.100186288
	I76 : omega : 	0.100186288
	I77 : omega : 	0.100186288
	I78 : omega : 	0.100186288
	I79 : omega : 	0.100186288
	I80 : omega : 	0.100186288
	I81 : omega : 	0.100186288
	I82 : omega : 	0.100186288
	I83 : omega : 	0.100186288
	I84 : omega : 	0.100186288
	I85 : omega : 	0.100186288
	I86 : omega : 	0.100186288
	I87 : omega : 	0.100186288
	I88 : omega : 	0.100186288
	I89 : omega : 	0.100186288
	I90 : omega : 	0.100186288
	I91 : omega : 	0.100186288
	I92 : omega : 	0.100186288
	I93 : omega : 	0.100186288
	I94 : omega : 	0.100186288
	I95 : omega : 	0.100186288
	I96 : omega : 	0.100186288
	I97 : omega : 	0.100186288
	I98 : omega : 	0.100186288
	I99 : omega : 	0.100186288
	I100 : omega : 	0.100186288
	I101 : omega : 	0.100186288
	I102 : omega : 	0.100186288
	I103 : omega : 	0.100186288
	I104 : omega : 	0.100186288
	I105 : omega : 	0.100186288
	I106 : omega : 	0.100186288
	I107 : omega : 	0.100186288
	I108 : omega : 	0.100186288
	I109 : omega : 	0.100186288
	I110 : omega : 	0.100186288
	I111 : omega : 	0.100186288
	I112 : omega : 	0.100186288
	I113 : omega : 	0.100186288
	I114 : omega : 	0.100186288
	I115 : omega : 	0.100186288
	I116 : omega : 	0.100186288
	I117 : omega : 	0.100186288
	I118 : omega : 	0.100186288
	I119 : omega : 	0.100186288
	I120 : omega : 	0.0849338341
	I121 : omega : 	0.0849338341
	I122 : omega : 	0.0849338341
	I123 : omega : 	0.0849338341
	I124 : omega : 	0.0849338341
	I125 : omega : 	0.0849338341
	I126 : omega : 	0.0849338341
	I127 : omega : 	0.0849338341
	I128 : omega : 	0.0849338341
	I129 : omega : 	0.0849338341
	I130 : omega : 	0.0849338341
	I131 : omega : 	0.0849338341
	I132 : omega : 	0.0849338341
	I133 : omega : 	0.0849338341
	I134 : omega : 	0.0849338341
	I135 : omega : 	0.0849338341
	I136 : omega : 	0.0849338341
	I137 : omega : 	0.0849338341
	I138 : omega : 	0.0849338341
	I139 : omega : 	0.0849338341
	I140 : omega : 	0.0849338341
	I141 : omega : 	0.0849338341
	I142 : omega : 	0.0849338341
	I143 : omega : 	0.0849338341
	I144 : omega : 	0.0567509736
	I145 : omega : 	0.0567509736
	I146 : omega : 	0.0567509736
	I147 : omega : 	0.0567509736
	I148 : omega : 	0.0567509736
	I149 : omega : 	0.0567509736
	I150 : omega : 	0.0567509736
	I151 : omega : 	0.0567509736
	I152 : omega : 	0.0567509736
	I153 : omega : 	0.0567509736
	I154 : omega : 	0.0567509736
	I155 : omega : 	0.0567509736
	I156 : omega : 	0.0567509736
	I157 : omega : 	0.0567509736
	I158 : omega : 	0.0567509736
	I159 : omega : 	0.0567509736
	I160 : omega : 	0.0567509736
	I161 : omega : 	0.0567509736
	I162 : omega : 	0.0567509736
	I163 : omega : 	0.0567509736
	I164 : omega : 	0.0567509736
	I165 : omega : 	0.0567509736
	I166 : omega : 	0.0567509736
	I167 : omega : 	0.0567509736
	I168 : omega : 	0.0199282918
	I169 : omega : 	0.0199282918
	I170 : omega : 	0.0199282918
	I171 : omega : 	0.0199282918
	I172 : omega : 	0.0199282918
	I173 : omega : 	0.0199282918
	I174 : omega : 	0.0199282918
	I175 : omega : 	0.0199282918
	I176 : omega : 	0.0199282918
	I177 : omega : 	0.0199282918
	I178 : omega : 	0.0199282918
	I179 : omega : 	0.0199282918
	I180 : omega : 	0.0199282918
	I181 : omega : 	0.0199282918
	I182 : omega : 	0.0199282918
	I183 : omega : 	0.0199282918
	I184 : omega : 	0.0199282918
	I185 : omega : 	0.0199282918
	I186 : omega : 	0.0199282918
	I187 : omega : 	0.0199282918
	I188 : omega : 	0.0199282918
	I189 : omega : 	0.0199282918
	I190 : omega : 	0.0199282918
	I191 : omega : 	0.0199282918


SIMPLE: convergence criteria
    field "(p_rgh|p)"	 tolerance 1e-07
    field U	 tolerance 1e-08
    field h	 tolerance 1e-08
    field "(k|epsilon|omega)"	 tolerance 1e-08


Starting time loop

forceCoeffs forceCoeffs1:
    Not including porosity effects

Time = 1

ExecutionTime = 10.32 s  ClockTime = 10 s

wallHeatFlux wallHeatFlux output:

Wall heat fluxes [W]
room_SIDE2
    convective: 0
    radiative:  -0
    total:      0
    Temperature : min = 293.55, max = 293.55, average = 293.55
room_FLOOR
    convective: 0
    radiative:  -0
    total:      0
    Temperature : min = 293.55, max = 293.55, average = 293.55
room_CEILING
    convective: 0
    radiative:  -0
    total:      0
    Temperature : min = 293.55, max = 293.55, average = 293.55
room_BACK
    convective: 0
    radiative:  -0
    total:      0
    Temperature : min = 293.55, max = 293.55, average = 293.55
room_SIDE1
    convective: 0
    radiative:  -0
    total:      0
    Temperature : min = 293.55, max = 293.55, average = 293.55
manikin
    convective: 1918.61557
    radiative:  -0
    total:      1918.61557
    Temperature : min = 307.15, max = 307.15, average = 307.15

yPlusRAS yplusRAS output:
    patch room_SIDE2 y+ : min = 0.628826338, max = 2.88619683, average = 2.70844379
    patch room_FLOOR y+ : min = 0.160969906, max = 2.88619649, average = 1.86929758
    patch room_CEILING y+ : min = 0.747111756, max = 2.8861965, average = 2.67122461
    patch room_BACK y+ : min = 1.00747525, max = 6.33815513, average = 1.42396152
    patch room_SIDE1 y+ : min = 0.628826834, max = 2.88619682, average = 2.70843579
    patch manikin y+ : min = 0.0548866625, max = 2.82299245, average = 0.322204425

yPlusRASLowRe yplusRASLowRe output:
room_SIDE2
    y+ : min = 0, max = 0, average = 0
    y : min = 0.000544684214, max = 0.00250000001, average = 0.00234603179
room_FLOOR
    y+ : min = 0, max = 0, average = 0
    y : min = 0.000139430812, max = 0.00249999971, average = 0.00161917022
room_CEILING
    y+ : min = 0, max = 0, average = 0
    y : min = 0.000647142072, max = 0.00249999973, average = 0.00231379284
room_BACK
    y+ : min = 0, max = 0, average = 0
    y : min = 0.000872666798, max = 0.00549005797, average = 0.00123342378
room_SIDE1
    y+ : min = 0, max = 0, average = 0
    y : min = 0.000544684643, max = 0.0025, average = 0.00234602486
manikin
    y+ : min = 0, max = 0, average = 0
    y : min = 4.97449872e-05, max = 0.00255854003, average = 0.000292020944

forceCoeffs forceCoeffs1 output:
    Cm    = -4499.86349
    Cd    = -99.5598637
    Cl    = -8664.87679
    Cl(f) = -8832.30188
    Cl(r) = 167.425092

Time = 2

ExecutionTime = 19.94 s  ClockTime = 20 s

wallHeatFlux wallHeatFlux output:

Wall heat fluxes [W]
room_SIDE2
    convective: 0
    radiative:  -0
    total:      0
    Temperature : min = 293.55, max = 293.55, average = 293.55
room_FLOOR
    convective: 0
    radiative:  -0
    total:      0
    Temperature : min = 293.55, max = 293.55, average = 293.55
room_CEILING
    convective: 0
    radiative:  -0
    total:      0
    Temperature : min = 293.55, max = 293.55, average = 293.55
room_BACK
    convective: 0
    radiative:  -0
    total:      0
    Temperature : min = 293.55, max = 293.55, average = 293.55
room_SIDE1
    convective: 0
    radiative:  -0
    total:      0
    Temperature : min = 293.55, max = 293.55, average = 293.55
manikin
    convective: 1918.61557
    radiative:  -0
    total:      1918.61557
    Temperature : min = 307.15, max = 307.15, average = 307.15

yPlusRAS yplusRAS output:
    patch room_SIDE2 y+ : min = 0.628826338, max = 2.88619683, average = 2.70844379
    patch room_FLOOR y+ : min = 0.160969906, max = 2.88619649, average = 1.86929758
    patch room_CEILING y+ : min = 0.747111756, max = 2.8861965, average = 2.67122461
    patch room_BACK y+ : min = 1.00747525, max = 6.33815513, average = 1.42396152
    patch room_SIDE1 y+ : min = 0.628826834, max = 2.88619682, average = 2.70843579
    patch manikin y+ : min = 0.0548866625, max = 2.82299245, average = 0.322204425

yPlusRASLowRe yplusRASLowRe output:
room_SIDE2
    y+ : min = 0, max = 0, average = 0
    y : min = 0.000544684214, max = 0.00250000001, average = 0.00234603179
room_FLOOR
    y+ : min = 0, max = 0, average = 0
    y : min = 0.000139430812, max = 0.00249999971, average = 0.00161917022
room_CEILING
    y+ : min = 0, max = 0, average = 0
    y : min = 0.000647142072, max = 0.00249999973, average = 0.00231379284
room_BACK
    y+ : min = 0, max = 0, average = 0
    y : min = 0.000872666798, max = 0.00549005797, average = 0.00123342378
room_SIDE1
    y+ : min = 0, max = 0, average = 0
    y : min = 0.000544684643, max = 0.0025, average = 0.00234602486
manikin
    y+ : min = 0, max = 0, average = 0
    y : min = 4.97449872e-05, max = 0.00255854003, average = 0.000292020944

forceCoeffs forceCoeffs1 output:
    Cm    = -4499.86349
    Cd    = -99.5598637
    Cl    = -8664.87679
    Cl(f) = -8832.30188
    Cl(r) = 167.425092

Time = 3

ExecutionTime = 21.01 s  ClockTime = 21 s

wallHeatFlux wallHeatFlux output:

Wall heat fluxes [W]
room_SIDE2
    convective: 0
    radiative:  -0
    total:      0
    Temperature : min = 293.55, max = 293.55, average = 293.55
room_FLOOR
    convective: 0
    radiative:  -0
    total:      0
    Temperature : min = 293.55, max = 293.55, average = 293.55
room_CEILING
    convective: 0
    radiative:  -0
    total:      0
    Temperature : min = 293.55, max = 293.55, average = 293.55
room_BACK
    convective: 0
    radiative:  -0
    total:      0
    Temperature : min = 293.55, max = 293.55, average = 293.55
room_SIDE1
    convective: 0
    radiative:  -0
    total:      0
    Temperature : min = 293.55, max = 293.55, average = 293.55
manikin
    convective: 1918.61557
    radiative:  -0
    total:      1918.61557
    Temperature : min = 307.15, max = 307.15, average = 307.15

yPlusRAS yplusRAS output:
    patch room_SIDE2 y+ : min = 0.628826338, max = 2.88619683, average = 2.70844379
    patch room_FLOOR y+ : min = 0.160969906, max = 2.88619649, average = 1.86929758
    patch room_CEILING y+ : min = 0.747111756, max = 2.8861965, average = 2.67122461
    patch room_BACK y+ : min = 1.00747525, max = 6.33815513, average = 1.42396152
    patch room_SIDE1 y+ : min = 0.628826834, max = 2.88619682, average = 2.70843579
    patch manikin y+ : min = 0.0548866625, max = 2.82299245, average = 0.322204425

yPlusRASLowRe yplusRASLowRe output:
room_SIDE2
    y+ : min = 0, max = 0, average = 0
    y : min = 0.000544684214, max = 0.00250000001, average = 0.00234603179
room_FLOOR
    y+ : min = 0, max = 0, average = 0
    y : min = 0.000139430812, max = 0.00249999971, average = 0.00161917022
room_CEILING
    y+ : min = 0, max = 0, average = 0
    y : min = 0.000647142072, max = 0.00249999973, average = 0.00231379284
room_BACK
    y+ : min = 0, max = 0, average = 0
    y : min = 0.000872666798, max = 0.00549005797, average = 0.00123342378
room_SIDE1
    y+ : min = 0, max = 0, average = 0
    y : min = 0.000544684643, max = 0.0025, average = 0.00234602486
manikin
    y+ : min = 0, max = 0, average = 0
    y : min = 4.97449872e-05, max = 0.00255854003, average = 0.000292020944

forceCoeffs forceCoeffs1 output:
    Cm    = -4499.86349
    Cd    = -99.5598637
    Cl    = -8664.87679
    Cl(f) = -8832.30188
    Cl(r) = 167.425092

Time = 4

ExecutionTime = 22.05 s  ClockTime = 22 s

wallHeatFlux wallHeatFlux output:

Wall heat fluxes [W]
room_SIDE2
    convective: 0
    radiative:  -0
    total:      0
    Temperature : min = 293.55, max = 293.55, average = 293.55
room_FLOOR
    convective: 0
    radiative:  -0
    total:      0
    Temperature : min = 293.55, max = 293.55, average = 293.55
room_CEILING
    convective: 0
    radiative:  -0
    total:      0
    Temperature : min = 293.55, max = 293.55, average = 293.55
room_BACK
    convective: 0
    radiative:  -0
    total:      0
    Temperature : min = 293.55, max = 293.55, average = 293.55
room_SIDE1
    convective: 0
    radiative:  -0
    total:      0
    Temperature : min = 293.55, max = 293.55, average = 293.55
manikin
    convective: 1918.61557
    radiative:  -0
    total:      1918.61557
    Temperature : min = 307.15, max = 307.15, average = 307.15

yPlusRAS yplusRAS output:
    patch room_SIDE2 y+ : min = 0.628826338, max = 2.88619683, average = 2.70844379
    patch room_FLOOR y+ : min = 0.160969906, max = 2.88619649, average = 1.86929758
    patch room_CEILING y+ : min = 0.747111756, max = 2.8861965, average = 2.67122461
    patch room_BACK y+ : min = 1.00747525, max = 6.33815513, average = 1.42396152
    patch room_SIDE1 y+ : min = 0.628826834, max = 2.88619682, average = 2.70843579
    patch manikin y+ : min = 0.0548866625, max = 2.82299245, average = 0.322204425

yPlusRASLowRe yplusRASLowRe output:
room_SIDE2
    y+ : min = 0, max = 0, average = 0
    y : min = 0.000544684214, max = 0.00250000001, average = 0.00234603179
room_FLOOR
    y+ : min = 0, max = 0, average = 0
    y : min = 0.000139430812, max = 0.00249999971, average = 0.00161917022
room_CEILING
    y+ : min = 0, max = 0, average = 0
    y : min = 0.000647142072, max = 0.00249999973, average = 0.00231379284
room_BACK
    y+ : min = 0, max = 0, average = 0
    y : min = 0.000872666798, max = 0.00549005797, average = 0.00123342378
room_SIDE1
    y+ : min = 0, max = 0, average = 0
    y : min = 0.000544684643, max = 0.0025, average = 0.00234602486
manikin
    y+ : min = 0, max = 0, average = 0
    y : min = 4.97449872e-05, max = 0.00255854003, average = 0.000292020944

forceCoeffs forceCoeffs1 output:
    Cm    = -4499.86349
    Cd    = -99.5598637
    Cl    = -8664.87679
    Cl(f) = -8832.30188
    Cl(r) = 167.425092

Time = 5

ExecutionTime = 23.14 s  ClockTime = 23 s

wallHeatFlux wallHeatFlux output:

Wall heat fluxes [W]
room_SIDE2
    convective: 0
    radiative:  -0
    total:      0
    Temperature : min = 293.55, max = 293.55, average = 293.55
room_FLOOR
    convective: 0
    radiative:  -0
    total:      0
    Temperature : min = 293.55, max = 293.55, average = 293.55
room_CEILING
    convective: 0
    radiative:  -0
    total:      0
    Temperature : min = 293.55, max = 293.55, average = 293.55
room_BACK
    convective: 0
    radiative:  -0
    total:      0
    Temperature : min = 293.55, max = 293.55, average = 293.55
room_SIDE1
    convective: 0
    radiative:  -0
    total:      0
    Temperature : min = 293.55, max = 293.55, average = 293.55
manikin
    convective: 1918.61557
    radiative:  -0
    total:      1918.61557
    Temperature : min = 307.15, max = 307.15, average = 307.15

yPlusRAS yplusRAS output:
    patch room_SIDE2 y+ : min = 0.628826338, max = 2.88619683, average = 2.70844379
    patch room_FLOOR y+ : min = 0.160969906, max = 2.88619649, average = 1.86929758
    patch room_CEILING y+ : min = 0.747111756, max = 2.8861965, average = 2.67122461
    patch room_BACK y+ : min = 1.00747525, max = 6.33815513, average = 1.42396152
    patch room_SIDE1 y+ : min = 0.628826834, max = 2.88619682, average = 2.70843579
    patch manikin y+ : min = 0.0548866625, max = 2.82299245, average = 0.322204425

yPlusRASLowRe yplusRASLowRe output:
room_SIDE2
    y+ : min = 0, max = 0, average = 0
    y : min = 0.000544684214, max = 0.00250000001, average = 0.00234603179
room_FLOOR
    y+ : min = 0, max = 0, average = 0
    y : min = 0.000139430812, max = 0.00249999971, average = 0.00161917022
room_CEILING
    y+ : min = 0, max = 0, average = 0
    y : min = 0.000647142072, max = 0.00249999973, average = 0.00231379284
room_BACK
    y+ : min = 0, max = 0, average = 0
    y : min = 0.000872666798, max = 0.00549005797, average = 0.00123342378
room_SIDE1
    y+ : min = 0, max = 0, average = 0
    y : min = 0.000544684643, max = 0.0025, average = 0.00234602486
manikin
    y+ : min = 0, max = 0, average = 0
    y : min = 4.97449872e-05, max = 0.00255854003, average = 0.000292020944

forceCoeffs forceCoeffs1 output:
    Cm    = -4499.86349
    Cd    = -99.5598637
    Cl    = -8664.87679
    Cl(f) = -8832.30188
    Cl(r) = 167.425092

Time = 6

ExecutionTime = 24.29 s  ClockTime = 25 s

wallHeatFlux wallHeatFlux output:

Wall heat fluxes [W]
room_SIDE2
    convective: 0
    radiative:  -0
    total:      0
    Temperature : min = 293.55, max = 293.55, average = 293.55
room_FLOOR
    convective: 0
    radiative:  -0
    total:      0
    Temperature : min = 293.55, max = 293.55, average = 293.55
room_CEILING
    convective: 0
    radiative:  -0
    total:      0
    Temperature : min = 293.55, max = 293.55, average = 293.55
room_BACK
    convective: 0
    radiative:  -0
    total:      0
    Temperature : min = 293.55, max = 293.55, average = 293.55
room_SIDE1
    convective: 0
    radiative:  -0
    total:      0
    Temperature : min = 293.55, max = 293.55, average = 293.55
manikin
    convective: 1918.61557
    radiative:  -0
    total:      1918.61557
    Temperature : min = 307.15, max = 307.15, average = 307.15

yPlusRAS yplusRAS output:
    patch room_SIDE2 y+ : min = 0.628826338, max = 2.88619683, average = 2.70844379
    patch room_FLOOR y+ : min = 0.160969906, max = 2.88619649, average = 1.86929758
    patch room_CEILING y+ : min = 0.747111756, max = 2.8861965, average = 2.67122461
    patch room_BACK y+ : min = 1.00747525, max = 6.33815513, average = 1.42396152
    patch room_SIDE1 y+ : min = 0.628826834, max = 2.88619682, average = 2.70843579
    patch manikin y+ : min = 0.0548866625, max = 2.82299245, average = 0.322204425

yPlusRASLowRe yplusRASLowRe output:
room_SIDE2
    y+ : min = 0, max = 0, average = 0
    y : min = 0.000544684214, max = 0.00250000001, average = 0.00234603179
room_FLOOR
    y+ : min = 0, max = 0, average = 0
    y : min = 0.000139430812, max = 0.00249999971, average = 0.00161917022
room_CEILING
    y+ : min = 0, max = 0, average = 0
    y : min = 0.000647142072, max = 0.00249999973, average = 0.00231379284
room_BACK
    y+ : min = 0, max = 0, average = 0
    y : min = 0.000872666798, max = 0.00549005797, average = 0.00123342378
room_SIDE1
    y+ : min = 0, max = 0, average = 0
    y : min = 0.000544684643, max = 0.0025, average = 0.00234602486
manikin
    y+ : min = 0, max = 0, average = 0
    y : min = 4.97449872e-05, max = 0.00255854003, average = 0.000292020944

forceCoeffs forceCoeffs1 output:
    Cm    = -4499.86349
    Cd    = -99.5598637
    Cl    = -8664.87679
    Cl(f) = -8832.30188
    Cl(r) = 167.425092

Time = 7

ExecutionTime = 25.61 s  ClockTime = 26 s

wallHeatFlux wallHeatFlux output:

Wall heat fluxes [W]
room_SIDE2
    convective: 0
    radiative:  -0
    total:      0
    Temperature : min = 293.55, max = 293.55, average = 293.55
room_FLOOR
    convective: 0
    radiative:  -0
    total:      0
    Temperature : min = 293.55, max = 293.55, average = 293.55
room_CEILING
    convective: 0
    radiative:  -0
    total:      0
    Temperature : min = 293.55, max = 293.55, average = 293.55
room_BACK
    convective: 0
    radiative:  -0
    total:      0
    Temperature : min = 293.55, max = 293.55, average = 293.55
room_SIDE1
    convective: 0
    radiative:  -0
    total:      0
    Temperature : min = 293.55, max = 293.55, average = 293.55
manikin
    convective: 1918.61557
    radiative:  -0
    total:      1918.61557
    Temperature : min = 307.15, max = 307.15, average = 307.15

yPlusRAS yplusRAS output:
    patch room_SIDE2 y+ : min = 0.628826338, max = 2.88619683, average = 2.70844379
    patch room_FLOOR y+ : min = 0.160969906, max = 2.88619649, average = 1.86929758
    patch room_CEILING y+ : min = 0.747111756, max = 2.8861965, average = 2.67122461
    patch room_BACK y+ : min = 1.00747525, max = 6.33815513, average = 1.42396152
    patch room_SIDE1 y+ : min = 0.628826834, max = 2.88619682, average = 2.70843579
    patch manikin y+ : min = 0.0548866625, max = 2.82299245, average = 0.322204425

yPlusRASLowRe yplusRASLowRe output:
room_SIDE2
    y+ : min = 0, max = 0, average = 0
    y : min = 0.000544684214, max = 0.00250000001, average = 0.00234603179
room_FLOOR
    y+ : min = 0, max = 0, average = 0
    y : min = 0.000139430812, max = 0.00249999971, average = 0.00161917022
room_CEILING
    y+ : min = 0, max = 0, average = 0
    y : min = 0.000647142072, max = 0.00249999973, average = 0.00231379284
room_BACK
    y+ : min = 0, max = 0, average = 0
    y : min = 0.000872666798, max = 0.00549005797, average = 0.00123342378
room_SIDE1
    y+ : min = 0, max = 0, average = 0
    y : min = 0.000544684643, max = 0.0025, average = 0.00234602486
manikin
    y+ : min = 0, max = 0, average = 0
    y : min = 4.97449872e-05, max = 0.00255854003, average = 0.000292020944

forceCoeffs forceCoeffs1 output:
    Cm    = -4499.86349
    Cd    = -99.5598637
    Cl    = -8664.87679
    Cl(f) = -8832.30188
    Cl(r) = 167.425092

Time = 8

ExecutionTime = 26.66 s  ClockTime = 27 s

wallHeatFlux wallHeatFlux output:

Wall heat fluxes [W]
room_SIDE2
    convective: 0
    radiative:  -0
    total:      0
    Temperature : min = 293.55, max = 293.55, average = 293.55
room_FLOOR
    convective: 0
    radiative:  -0
    total:      0
    Temperature : min = 293.55, max = 293.55, average = 293.55
room_CEILING
    convective: 0
    radiative:  -0
    total:      0
    Temperature : min = 293.55, max = 293.55, average = 293.55
room_BACK
    convective: 0
    radiative:  -0
    total:      0
    Temperature : min = 293.55, max = 293.55, average = 293.55
room_SIDE1
    convective: 0
    radiative:  -0
    total:      0
    Temperature : min = 293.55, max = 293.55, average = 293.55
manikin
    convective: 1918.61557
    radiative:  -0
    total:      1918.61557
    Temperature : min = 307.15, max = 307.15, average = 307.15

yPlusRAS yplusRAS output:
    patch room_SIDE2 y+ : min = 0.628826338, max = 2.88619683, average = 2.70844379
    patch room_FLOOR y+ : min = 0.160969906, max = 2.88619649, average = 1.86929758
    patch room_CEILING y+ : min = 0.747111756, max = 2.8861965, average = 2.67122461
    patch room_BACK y+ : min = 1.00747525, max = 6.33815513, average = 1.42396152
    patch room_SIDE1 y+ : min = 0.628826834, max = 2.88619682, average = 2.70843579
    patch manikin y+ : min = 0.0548866625, max = 2.82299245, average = 0.322204425

yPlusRASLowRe yplusRASLowRe output:
room_SIDE2
    y+ : min = 0, max = 0, average = 0
    y : min = 0.000544684214, max = 0.00250000001, average = 0.00234603179
room_FLOOR
    y+ : min = 0, max = 0, average = 0
    y : min = 0.000139430812, max = 0.00249999971, average = 0.00161917022
room_CEILING
    y+ : min = 0, max = 0, average = 0
    y : min = 0.000647142072, max = 0.00249999973, average = 0.00231379284
room_BACK
    y+ : min = 0, max = 0, average = 0
    y : min = 0.000872666798, max = 0.00549005797, average = 0.00123342378
room_SIDE1
    y+ : min = 0, max = 0, average = 0
    y : min = 0.000544684643, max = 0.0025, average = 0.00234602486
manikin
    y+ : min = 0, max = 0, average = 0
    y : min = 4.97449872e-05, max = 0.00255854003, average = 0.000292020944

forceCoeffs forceCoeffs1 output:
    Cm    = -4499.86349
    Cd    = -99.5598637
    Cl    = -8664.87679
    Cl(f) = -8832.30188
    Cl(r) = 167.425092

Time = 9

ExecutionTime = 27.77 s  ClockTime = 28 s

wallHeatFlux wallHeatFlux output:

Wall heat fluxes [W]
room_SIDE2
    convective: 0
    radiative:  -0
    total:      0
    Temperature : min = 293.55, max = 293.55, average = 293.55
room_FLOOR
    convective: 0
    radiative:  -0
    total:      0
    Temperature : min = 293.55, max = 293.55, average = 293.55
room_CEILING
    convective: 0
    radiative:  -0
    total:      0
    Temperature : min = 293.55, max = 293.55, average = 293.55
room_BACK
    convective: 0
    radiative:  -0
    total:      0
    Temperature : min = 293.55, max = 293.55, average = 293.55
room_SIDE1
    convective: 0
    radiative:  -0
    total:      0
    Temperature : min = 293.55, max = 293.55, average = 293.55
manikin
    convective: 1918.61557
    radiative:  -0
    total:      1918.61557
    Temperature : min = 307.15, max = 307.15, average = 307.15

yPlusRAS yplusRAS output:
    patch room_SIDE2 y+ : min = 0.628826338, max = 2.88619683, average = 2.70844379
    patch room_FLOOR y+ : min = 0.160969906, max = 2.88619649, average = 1.86929758
    patch room_CEILING y+ : min = 0.747111756, max = 2.8861965, average = 2.67122461
    patch room_BACK y+ : min = 1.00747525, max = 6.33815513, average = 1.42396152
    patch room_SIDE1 y+ : min = 0.628826834, max = 2.88619682, average = 2.70843579
    patch manikin y+ : min = 0.0548866625, max = 2.82299245, average = 0.322204425

yPlusRASLowRe yplusRASLowRe output:
room_SIDE2
    y+ : min = 0, max = 0, average = 0
    y : min = 0.000544684214, max = 0.00250000001, average = 0.00234603179
room_FLOOR
    y+ : min = 0, max = 0, average = 0
    y : min = 0.000139430812, max = 0.00249999971, average = 0.00161917022
room_CEILING
    y+ : min = 0, max = 0, average = 0
    y : min = 0.000647142072, max = 0.00249999973, average = 0.00231379284
room_BACK
    y+ : min = 0, max = 0, average = 0
    y : min = 0.000872666798, max = 0.00549005797, average = 0.00123342378
room_SIDE1
    y+ : min = 0, max = 0, average = 0
    y : min = 0.000544684643, max = 0.0025, average = 0.00234602486
manikin
    y+ : min = 0, max = 0, average = 0
    y : min = 4.97449872e-05, max = 0.00255854003, average = 0.000292020944

forceCoeffs forceCoeffs1 output:
    Cm    = -4499.86349
    Cd    = -99.5598637
    Cl    = -8664.87679
    Cl(f) = -8832.30188
    Cl(r) = 167.425092

Time = 10

ExecutionTime = 29.36 s  ClockTime = 30 s

wallHeatFlux wallHeatFlux output:

Wall heat fluxes [W]
room_SIDE2
    convective: 0
    radiative:  -0
    total:      0
    Temperature : min = 293.55, max = 293.55, average = 293.55
room_FLOOR
    convective: 0
    radiative:  -0
    total:      0
    Temperature : min = 293.55, max = 293.55, average = 293.55
room_CEILING
    convective: 0
    radiative:  -0
    total:      0
    Temperature : min = 293.55, max = 293.55, average = 293.55
room_BACK
    convective: 0
    radiative:  -0
    total:      0
    Temperature : min = 293.55, max = 293.55, average = 293.55
room_SIDE1
    convective: 0
    radiative:  -0
    total:      0
    Temperature : min = 293.55, max = 293.55, average = 293.55
manikin
    convective: 1918.61557
    radiative:  -0
    total:      1918.61557
    Temperature : min = 307.15, max = 307.15, average = 307.15

yPlusRAS yplusRAS output:
    patch room_SIDE2 y+ : min = 0.628826338, max = 2.88619683, average = 2.70844379
    patch room_FLOOR y+ : min = 0.160969906, max = 2.88619649, average = 1.86929758
    patch room_CEILING y+ : min = 0.747111756, max = 2.8861965, average = 2.67122461
    patch room_BACK y+ : min = 1.00747525, max = 6.33815513, average = 1.42396152
    patch room_SIDE1 y+ : min = 0.628826834, max = 2.88619682, average = 2.70843579
    patch manikin y+ : min = 0.0548866625, max = 2.82299245, average = 0.322204425

yPlusRASLowRe yplusRASLowRe output:
room_SIDE2
    y+ : min = 0, max = 0, average = 0
    y : min = 0.000544684214, max = 0.00250000001, average = 0.00234603179
room_FLOOR
    y+ : min = 0, max = 0, average = 0
    y : min = 0.000139430812, max = 0.00249999971, average = 0.00161917022
room_CEILING
    y+ : min = 0, max = 0, average = 0
    y : min = 0.000647142072, max = 0.00249999973, average = 0.00231379284
room_BACK
    y+ : min = 0, max = 0, average = 0
    y : min = 0.000872666798, max = 0.00549005797, average = 0.00123342378
room_SIDE1
    y+ : min = 0, max = 0, average = 0
    y : min = 0.000544684643, max = 0.0025, average = 0.00234602486
manikin
    y+ : min = 0, max = 0, average = 0
    y : min = 4.97449872e-05, max = 0.00255854003, average = 0.000292020944

forceCoeffs forceCoeffs1 output:
    Cm    = -4499.86349
    Cd    = -99.5598637
    Cl    = -8664.87679
    Cl(f) = -8832.30188
    Cl(r) = 167.425092

Time = 11

Time Index = 11;    solver frequency = 10
Radiation solver iter: 0
GAMG:  Solving for ILambda_0_0, Initial residual = 1, Final residual = 0.00693287511, No Iterations 1
GAMG:  Solving for ILambda_1_0, Initial residual = 1, Final residual = 0.00629772893, No Iterations 1
GAMG:  Solving for ILambda_2_0, Initial residual = 1, Final residual = 0.00570982576, No Iterations 1
GAMG:  Solving for ILambda_3_0, Initial residual = 1, Final residual = 0.0054608286, No Iterations 1
GAMG:  Solving for ILambda_4_0, Initial residual = 1, Final residual = 0.00532389475, No Iterations 1
GAMG:  Solving for ILambda_5_0, Initial residual = 1, Final residual = 0.00526979391, No Iterations 1
GAMG:  Solving for ILambda_6_0, Initial residual = 1, Final residual = 0.00472722678, No Iterations 1
GAMG:  Solving for ILambda_7_0, Initial residual = 1, Final residual = 0.00501160142, No Iterations 1
GAMG:  Solving for ILambda_8_0, Initial residual = 1, Final residual = 0.00547795575, No Iterations 1
GAMG:  Solving for ILambda_9_0, Initial residual = 1, Final residual = 0.00611580736, No Iterations 1
GAMG:  Solving for ILambda_10_0, Initial residual = 1, Final residual = 0.00704092411, No Iterations 1
GAMG:  Solving for ILambda_11_0, Initial residual = 1, Final residual = 0.00886187459, No Iterations 1
GAMG:  Solving for ILambda_12_0, Initial residual = 1, Final residual = 0.00891750009, No Iterations 1
GAMG:  Solving for ILambda_13_0, Initial residual = 1, Final residual = 0.00733438813, No Iterations 1
GAMG:  Solving for ILambda_14_0, Initial residual = 1, Final residual = 0.00657812909, No Iterations 1
GAMG:  Solving for ILambda_15_0, Initial residual = 1, Final residual = 0.00616637077, No Iterations 1
GAMG:  Solving for ILambda_16_0, Initial residual = 1, Final residual = 0.0059501996, No Iterations 1
GAMG:  Solving for ILambda_17_0, Initial residual = 1, Final residual = 0.00612154779, No Iterations 1
GAMG:  Solving for ILambda_18_0, Initial residual = 1, Final residual = 0.00721445941, No Iterations 1
GAMG:  Solving for ILambda_19_0, Initial residual = 1, Final residual = 0.00704360845, No Iterations 1
GAMG:  Solving for ILambda_20_0, Initial residual = 1, Final residual = 0.00718504964, No Iterations 1
GAMG:  Solving for ILambda_21_0, Initial residual = 1, Final residual = 0.00743326498, No Iterations 1
GAMG:  Solving for ILambda_22_0, Initial residual = 1, Final residual = 0.00760569885, No Iterations 1
GAMG:  Solving for ILambda_23_0, Initial residual = 1, Final residual = 0.00748961549, No Iterations 1
GAMG:  Solving for ILambda_24_0, Initial residual = 1, Final residual = 0.00958283554, No Iterations 1
GAMG:  Solving for ILambda_25_0, Initial residual = 1, Final residual = 0.00767054095, No Iterations 1
GAMG:  Solving for ILambda_26_0, Initial residual = 1, Final residual = 0.00596447996, No Iterations 1
GAMG:  Solving for ILambda_27_0, Initial residual = 1, Final residual = 0.00484074155, No Iterations 1
GAMG:  Solving for ILambda_28_0, Initial residual = 1, Final residual = 0.00437004543, No Iterations 1
GAMG:  Solving for ILambda_29_0, Initial residual = 1, Final residual = 0.00444571329, No Iterations 1
GAMG:  Solving for ILambda_30_0, Initial residual = 1, Final residual = 0.00396435197, No Iterations 1
GAMG:  Solving for ILambda_31_0, Initial residual = 1, Final residual = 0.00434453302, No Iterations 1
GAMG:  Solving for ILambda_32_0, Initial residual = 1, Final residual = 0.00512400973, No Iterations 1
GAMG:  Solving for ILambda_33_0, Initial residual = 1, Final residual = 0.00637242338, No Iterations 1
GAMG:  Solving for ILambda_34_0, Initial residual = 1, Final residual = 0.007893496, No Iterations 1
GAMG:  Solving for ILambda_35_0, Initial residual = 1, Final residual = 0.00233448212, No Iterations 2
GAMG:  Solving for ILambda_36_0, Initial residual = 1, Final residual = 0.00226520993, No Iterations 2
GAMG:  Solving for ILambda_37_0, Initial residual = 1, Final residual = 0.00798976214, No Iterations 1
GAMG:  Solving for ILambda_38_0, Initial residual = 1, Final residual = 0.00667775304, No Iterations 1
GAMG:  Solving for ILambda_39_0, Initial residual = 1, Final residual = 0.00568160521, No Iterations 1
GAMG:  Solving for ILambda_40_0, Initial residual = 1, Final residual = 0.00519315734, No Iterations 1
GAMG:  Solving for ILambda_41_0, Initial residual = 1, Final residual = 0.00516710789, No Iterations 1
GAMG:  Solving for ILambda_42_0, Initial residual = 1, Final residual = 0.00638428757, No Iterations 1
GAMG:  Solving for ILambda_43_0, Initial residual = 1, Final residual = 0.00639651633, No Iterations 1
GAMG:  Solving for ILambda_44_0, Initial residual = 1, Final residual = 0.0070658271, No Iterations 1
GAMG:  Solving for ILambda_45_0, Initial residual = 1, Final residual = 0.00822467134, No Iterations 1
GAMG:  Solving for ILambda_46_0, Initial residual = 1, Final residual = 0.00946581042, No Iterations 1
GAMG:  Solving for ILambda_47_0, Initial residual = 1, Final residual = 0.00236004308, No Iterations 2
GAMG:  Solving for ILambda_48_0, Initial residual = 1, Final residual = 0.00290018836, No Iterations 2
GAMG:  Solving for ILambda_49_0, Initial residual = 1, Final residual = 0.00838237936, No Iterations 1
GAMG:  Solving for ILambda_50_0, Initial residual = 1, Final residual = 0.0063030854, No Iterations 1
GAMG:  Solving for ILambda_51_0, Initial residual = 1, Final residual = 0.0047577991, No Iterations 1
GAMG:  Solving for ILambda_52_0, Initial residual = 1, Final residual = 0.0038910113, No Iterations 1
GAMG:  Solving for ILambda_53_0, Initial residual = 1, Final residual = 0.00389569739, No Iterations 1
GAMG:  Solving for ILambda_54_0, Initial residual = 1, Final residual = 0.00345924484, No Iterations 1
GAMG:  Solving for ILambda_55_0, Initial residual = 1, Final residual = 0.00388075888, No Iterations 1
GAMG:  Solving for ILambda_56_0, Initial residual = 1, Final residual = 0.00464541947, No Iterations 1
GAMG:  Solving for ILambda_57_0, Initial residual = 1, Final residual = 0.00596159181, No Iterations 1
GAMG:  Solving for ILambda_58_0, Initial residual = 1, Final residual = 0.00780078791, No Iterations 1
GAMG:  Solving for ILambda_59_0, Initial residual = 1, Final residual = 0.00211837898, No Iterations 2
GAMG:  Solving for ILambda_60_0, Initial residual = 1, Final residual = 0.00201416929, No Iterations 2
GAMG:  Solving for ILambda_61_0, Initial residual = 1, Final residual = 0.00775375172, No Iterations 1
GAMG:  Solving for ILambda_62_0, Initial residual = 1, Final residual = 0.00617003541, No Iterations 1
GAMG:  Solving for ILambda_63_0, Initial residual = 1, Final residual = 0.00508199349, No Iterations 1
GAMG:  Solving for ILambda_64_0, Initial residual = 1, Final residual = 0.00460267396, No Iterations 1
GAMG:  Solving for ILambda_65_0, Initial residual = 1, Final residual = 0.00466451601, No Iterations 1
GAMG:  Solving for ILambda_66_0, Initial residual = 1, Final residual = 0.00579248514, No Iterations 1
GAMG:  Solving for ILambda_67_0, Initial residual = 1, Final residual = 0.00606743584, No Iterations 1
GAMG:  Solving for ILambda_68_0, Initial residual = 1, Final residual = 0.00711563643, No Iterations 1
GAMG:  Solving for ILambda_69_0, Initial residual = 1, Final residual = 0.00849218608, No Iterations 1
GAMG:  Solving for ILambda_70_0, Initial residual = 1, Final residual = 0.00220896957, No Iterations 2
GAMG:  Solving for ILambda_71_0, Initial residual = 1, Final residual = 0.00301566296, No Iterations 2
GAMG:  Solving for ILambda_72_0, Initial residual = 1, Final residual = 0.00302799743, No Iterations 2
GAMG:  Solving for ILambda_73_0, Initial residual = 1, Final residual = 0.00812133199, No Iterations 1
GAMG:  Solving for ILambda_74_0, Initial residual = 1, Final residual = 0.00620377845, No Iterations 1
GAMG:  Solving for ILambda_75_0, Initial residual = 1, Final residual = 0.00467171793, No Iterations 1
GAMG:  Solving for ILambda_76_0, Initial residual = 1, Final residual = 0.00368833453, No Iterations 1
GAMG:  Solving for ILambda_77_0, Initial residual = 1, Final residual = 0.00367886215, No Iterations 1
GAMG:  Solving for ILambda_78_0, Initial residual = 1, Final residual = 0.00331117678, No Iterations 1
GAMG:  Solving for ILambda_79_0, Initial residual = 1, Final residual = 0.00376853209, No Iterations 1
GAMG:  Solving for ILambda_80_0, Initial residual = 1, Final residual = 0.00449453118, No Iterations 1
GAMG:  Solving for ILambda_81_0, Initial residual = 1, Final residual = 0.00574639681, No Iterations 1
GAMG:  Solving for ILambda_82_0, Initial residual = 1, Final residual = 0.0077890874, No Iterations 1
GAMG:  Solving for ILambda_83_0, Initial residual = 1, Final residual = 0.00251315767, No Iterations 2
GAMG:  Solving for ILambda_84_0, Initial residual = 1, Final residual = 0.00941793177, No Iterations 1
GAMG:  Solving for ILambda_85_0, Initial residual = 1, Final residual = 0.00719289496, No Iterations 1
GAMG:  Solving for ILambda_86_0, Initial residual = 1, Final residual = 0.00555968402, No Iterations 1
GAMG:  Solving for ILambda_87_0, Initial residual = 1, Final residual = 0.00478172416, No Iterations 1
GAMG:  Solving for ILambda_88_0, Initial residual = 1, Final residual = 0.00434184857, No Iterations 1
GAMG:  Solving for ILambda_89_0, Initial residual = 1, Final residual = 0.0043683748, No Iterations 1
GAMG:  Solving for ILambda_90_0, Initial residual = 1, Final residual = 0.0054364771, No Iterations 1
GAMG:  Solving for ILambda_91_0, Initial residual = 1, Final residual = 0.00603598878, No Iterations 1
GAMG:  Solving for ILambda_92_0, Initial residual = 1, Final residual = 0.00737583287, No Iterations 1
GAMG:  Solving for ILambda_93_0, Initial residual = 1, Final residual = 0.00877796619, No Iterations 1
GAMG:  Solving for ILambda_94_0, Initial residual = 1, Final residual = 0.00234822916, No Iterations 2
GAMG:  Solving for ILambda_95_0, Initial residual = 1, Final residual = 0.00342507248, No Iterations 2
GAMG:  Solving for ILambda_96_0, Initial residual = 1, Final residual = 0.00434527413, No Iterations 2
GAMG:  Solving for ILambda_97_0, Initial residual = 1, Final residual = 0.00939631862, No Iterations 1
GAMG:  Solving for ILambda_98_0, Initial residual = 1, Final residual = 0.00704480899, No Iterations 1
GAMG:  Solving for ILambda_99_0, Initial residual = 1, Final residual = 0.00535539399, No Iterations 1
GAMG:  Solving for ILambda_100_0, Initial residual = 1, Final residual = 0.00414224136, No Iterations 1
GAMG:  Solving for ILambda_101_0, Initial residual = 1, Final residual = 0.0040683691, No Iterations 1
GAMG:  Solving for ILambda_102_0, Initial residual = 1, Final residual = 0.00349251851, No Iterations 1
GAMG:  Solving for ILambda_103_0, Initial residual = 1, Final residual = 0.00376623925, No Iterations 1
GAMG:  Solving for ILambda_104_0, Initial residual = 1, Final residual = 0.00444518205, No Iterations 1
GAMG:  Solving for ILambda_105_0, Initial residual = 1, Final residual = 0.00559628655, No Iterations 1
GAMG:  Solving for ILambda_106_0, Initial residual = 1, Final residual = 0.00723586525, No Iterations 1
GAMG:  Solving for ILambda_107_0, Initial residual = 1, Final residual = 0.00866890424, No Iterations 1
GAMG:  Solving for ILambda_108_0, Initial residual = 1, Final residual = 0.00695238981, No Iterations 1
GAMG:  Solving for ILambda_109_0, Initial residual = 1, Final residual = 0.0057530307, No Iterations 1
GAMG:  Solving for ILambda_110_0, Initial residual = 1, Final residual = 0.00478447773, No Iterations 1
GAMG:  Solving for ILambda_111_0, Initial residual = 1, Final residual = 0.00429235649, No Iterations 1
GAMG:  Solving for ILambda_112_0, Initial residual = 1, Final residual = 0.00389118144, No Iterations 1
GAMG:  Solving for ILambda_113_0, Initial residual = 1, Final residual = 0.00400091854, No Iterations 1
GAMG:  Solving for ILambda_114_0, Initial residual = 1, Final residual = 0.00540027339, No Iterations 1
GAMG:  Solving for ILambda_115_0, Initial residual = 1, Final residual = 0.00581572999, No Iterations 1
GAMG:  Solving for ILambda_116_0, Initial residual = 1, Final residual = 0.00690359899, No Iterations 1
GAMG:  Solving for ILambda_117_0, Initial residual = 1, Final residual = 0.0084533873, No Iterations 1
GAMG:  Solving for ILambda_118_0, Initial residual = 1, Final residual = 0.00260972171, No Iterations 2
GAMG:  Solving for ILambda_119_0, Initial residual = 1, Final residual = 0.00450870075, No Iterations 2
GAMG:  Solving for ILambda_120_0, Initial residual = 1, Final residual = 0.00453906861, No Iterations 2
GAMG:  Solving for ILambda_121_0, Initial residual = 1, Final residual = 0.00245583272, No Iterations 2
GAMG:  Solving for ILambda_122_0, Initial residual = 1, Final residual = 0.00768188399, No Iterations 1
GAMG:  Solving for ILambda_123_0, Initial residual = 1, Final residual = 0.00606835503, No Iterations 1
GAMG:  Solving for ILambda_124_0, Initial residual = 1, Final residual = 0.00479214078, No Iterations 1
GAMG:  Solving for ILambda_125_0, Initial residual = 1, Final residual = 0.00448460503, No Iterations 1
GAMG:  Solving for ILambda_126_0, Initial residual = 1, Final residual = 0.00352773971, No Iterations 1
GAMG:  Solving for ILambda_127_0, Initial residual = 1, Final residual = 0.00369871727, No Iterations 1
GAMG:  Solving for ILambda_128_0, Initial residual = 1, Final residual = 0.00428625246, No Iterations 1
GAMG:  Solving for ILambda_129_0, Initial residual = 1, Final residual = 0.00507987049, No Iterations 1
GAMG:  Solving for ILambda_130_0, Initial residual = 1, Final residual = 0.00615413863, No Iterations 1
GAMG:  Solving for ILambda_131_0, Initial residual = 1, Final residual = 0.00729719937, No Iterations 1
GAMG:  Solving for ILambda_132_0, Initial residual = 1, Final residual = 0.00667179271, No Iterations 1
GAMG:  Solving for ILambda_133_0, Initial residual = 1, Final residual = 0.00530048642, No Iterations 1
GAMG:  Solving for ILambda_134_0, Initial residual = 1, Final residual = 0.00444482658, No Iterations 1
GAMG:  Solving for ILambda_135_0, Initial residual = 1, Final residual = 0.00392898078, No Iterations 1
GAMG:  Solving for ILambda_136_0, Initial residual = 1, Final residual = 0.0035975985, No Iterations 1
GAMG:  Solving for ILambda_137_0, Initial residual = 1, Final residual = 0.00361540717, No Iterations 1
GAMG:  Solving for ILambda_138_0, Initial residual = 1, Final residual = 0.00492425753, No Iterations 1
GAMG:  Solving for ILambda_139_0, Initial residual = 1, Final residual = 0.00532058033, No Iterations 1
GAMG:  Solving for ILambda_140_0, Initial residual = 1, Final residual = 0.00644457084, No Iterations 1
GAMG:  Solving for ILambda_141_0, Initial residual = 1, Final residual = 0.00803633841, No Iterations 1
GAMG:  Solving for ILambda_142_0, Initial residual = 1, Final residual = 0.00232087529, No Iterations 2
GAMG:  Solving for ILambda_143_0, Initial residual = 1, Final residual = 0.00425703065, No Iterations 2
GAMG:  Solving for ILambda_144_0, Initial residual = 1, Final residual = 0.00305466802, No Iterations 2
GAMG:  Solving for ILambda_145_0, Initial residual = 1, Final residual = 0.00908095991, No Iterations 1
GAMG:  Solving for ILambda_146_0, Initial residual = 1, Final residual = 0.00728748506, No Iterations 1
GAMG:  Solving for ILambda_147_0, Initial residual = 1, Final residual = 0.00599467783, No Iterations 1
GAMG:  Solving for ILambda_148_0, Initial residual = 1, Final residual = 0.00502200749, No Iterations 1
GAMG:  Solving for ILambda_149_0, Initial residual = 1, Final residual = 0.00487055688, No Iterations 1
GAMG:  Solving for ILambda_150_0, Initial residual = 1, Final residual = 0.00366541028, No Iterations 1
GAMG:  Solving for ILambda_151_0, Initial residual = 1, Final residual = 0.00369134506, No Iterations 1
GAMG:  Solving for ILambda_152_0, Initial residual = 1, Final residual = 0.00402300014, No Iterations 1
GAMG:  Solving for ILambda_153_0, Initial residual = 1, Final residual = 0.00444076641, No Iterations 1
GAMG:  Solving for ILambda_154_0, Initial residual = 1, Final residual = 0.0049404475, No Iterations 1
GAMG:  Solving for ILambda_155_0, Initial residual = 1, Final residual = 0.00565838795, No Iterations 1
GAMG:  Solving for ILambda_156_0, Initial residual = 1, Final residual = 0.00554588841, No Iterations 1
GAMG:  Solving for ILambda_157_0, Initial residual = 1, Final residual = 0.00459543083, No Iterations 1
GAMG:  Solving for ILambda_158_0, Initial residual = 1, Final residual = 0.00409444521, No Iterations 1
GAMG:  Solving for ILambda_159_0, Initial residual = 1, Final residual = 0.00373209726, No Iterations 1
GAMG:  Solving for ILambda_160_0, Initial residual = 1, Final residual = 0.00346178888, No Iterations 1
GAMG:  Solving for ILambda_161_0, Initial residual = 1, Final residual = 0.0035176372, No Iterations 1
GAMG:  Solving for ILambda_162_0, Initial residual = 1, Final residual = 0.00488931116, No Iterations 1
GAMG:  Solving for ILambda_163_0, Initial residual = 1, Final residual = 0.00526052209, No Iterations 1
GAMG:  Solving for ILambda_164_0, Initial residual = 1, Final residual = 0.00614873067, No Iterations 1
GAMG:  Solving for ILambda_165_0, Initial residual = 1, Final residual = 0.0073482094, No Iterations 1
GAMG:  Solving for ILambda_166_0, Initial residual = 1, Final residual = 0.00906987951, No Iterations 1
GAMG:  Solving for ILambda_167_0, Initial residual = 1, Final residual = 0.00283537652, No Iterations 2
GAMG:  Solving for ILambda_168_0, Initial residual = 1, Final residual = 0.00781039859, No Iterations 1
GAMG:  Solving for ILambda_169_0, Initial residual = 1, Final residual = 0.00696229528, No Iterations 1
GAMG:  Solving for ILambda_170_0, Initial residual = 1, Final residual = 0.00623122198, No Iterations 1
GAMG:  Solving for ILambda_171_0, Initial residual = 1, Final residual = 0.00567301913, No Iterations 1
GAMG:  Solving for ILambda_172_0, Initial residual = 1, Final residual = 0.00542188933, No Iterations 1
GAMG:  Solving for ILambda_173_0, Initial residual = 1, Final residual = 0.00547456993, No Iterations 1
GAMG:  Solving for ILambda_174_0, Initial residual = 1, Final residual = 0.00431166564, No Iterations 1
GAMG:  Solving for ILambda_175_0, Initial residual = 1, Final residual = 0.00420509399, No Iterations 1
GAMG:  Solving for ILambda_176_0, Initial residual = 1, Final residual = 0.00421459901, No Iterations 1
GAMG:  Solving for ILambda_177_0, Initial residual = 1, Final residual = 0.00432104, No Iterations 1
GAMG:  Solving for ILambda_178_0, Initial residual = 1, Final residual = 0.00457752666, No Iterations 1
GAMG:  Solving for ILambda_179_0, Initial residual = 1, Final residual = 0.0049749859, No Iterations 1
GAMG:  Solving for ILambda_180_0, Initial residual = 1, Final residual = 0.00494542019, No Iterations 1
GAMG:  Solving for ILambda_181_0, Initial residual = 1, Final residual = 0.00444471692, No Iterations 1
GAMG:  Solving for ILambda_182_0, Initial residual = 1, Final residual = 0.00416100055, No Iterations 1
GAMG:  Solving for ILambda_183_0, Initial residual = 1, Final residual = 0.00409956305, No Iterations 1
GAMG:  Solving for ILambda_184_0, Initial residual = 1, Final residual = 0.00402557207, No Iterations 1
GAMG:  Solving for ILambda_185_0, Initial residual = 1, Final residual = 0.00407187817, No Iterations 1
GAMG:  Solving for ILambda_186_0, Initial residual = 1, Final residual = 0.00529324693, No Iterations 1
GAMG:  Solving for ILambda_187_0, Initial residual = 1, Final residual = 0.00563431082, No Iterations 1
GAMG:  Solving for ILambda_188_0, Initial residual = 1, Final residual = 0.00591254982, No Iterations 1
GAMG:  Solving for ILambda_189_0, Initial residual = 1, Final residual = 0.00647954515, No Iterations 1
GAMG:  Solving for ILambda_190_0, Initial residual = 1, Final residual = 0.00721822258, No Iterations 1
GAMG:  Solving for ILambda_191_0, Initial residual = 1, Final residual = 0.00797282014, No Iterations 1
Radiation solver iter: 1
GAMG:  Solving for ILambda_0_0, Initial residual = 0.0471279925, Final residual = 0.000185946254, No Iterations 5
GAMG:  Solving for ILambda_1_0, Initial residual = 0.0431425184, Final residual = 0.000226043862, No Iterations 4
GAMG:  Solving for ILambda_2_0, Initial residual = 0.0392801754, Final residual = 0.000189888028, No Iterations 4
GAMG:  Solving for ILambda_3_0, Initial residual = 0.0381740083, Final residual = 0.000158662151, No Iterations 4
GAMG:  Solving for ILambda_4_0, Initial residual = 0.0363418626, Final residual = 0.000142334149, No Iterations 4
GAMG:  Solving for ILambda_5_0, Initial residual = 0.0342837254, Final residual = 0.000266965069, No Iterations 4
GAMG:  Solving for ILambda_6_0, Initial residual = 0.0302770315, Final residual = 0.000142944832, No Iterations 5
GAMG:  Solving for ILambda_7_0, Initial residual = 0.0322645122, Final residual = 0.000114875211, No Iterations 4
GAMG:  Solving for ILambda_8_0, Initial residual = 0.0355349964, Final residual = 0.000311372268, No Iterations 3
GAMG:  Solving for ILambda_9_0, Initial residual = 0.0398345404, Final residual = 0.000272267873, No Iterations 3
GAMG:  Solving for ILambda_10_0, Initial residual = 0.0456316504, Final residual = 0.000298722274, No Iterations 3
GAMG:  Solving for ILambda_11_0, Initial residual = 0.0564950094, Final residual = 0.000141374637, No Iterations 4
GAMG:  Solving for ILambda_12_0, Initial residual = 0.0571442719, Final residual = 0.000151549359, No Iterations 4
GAMG:  Solving for ILambda_13_0, Initial residual = 0.0485669831, Final residual = 0.000349228389, No Iterations 3
GAMG:  Solving for ILambda_14_0, Initial residual = 0.0441793236, Final residual = 0.000303986712, No Iterations 3
GAMG:  Solving for ILambda_15_0, Initial residual = 0.0414862529, Final residual = 0.000340330269, No Iterations 3
GAMG:  Solving for ILambda_16_0, Initial residual = 0.0398011623, Final residual = 0.000123136962, No Iterations 4
GAMG:  Solving for ILambda_17_0, Initial residual = 0.0406640504, Final residual = 0.000386202245, No Iterations 4
GAMG:  Solving for ILambda_18_0, Initial residual = 0.0476768202, Final residual = 0.000384785268, No Iterations 5
GAMG:  Solving for ILambda_19_0, Initial residual = 0.0481560724, Final residual = 0.000160454076, No Iterations 4
GAMG:  Solving for ILambda_20_0, Initial residual = 0.0498285143, Final residual = 0.000155644468, No Iterations 4
GAMG:  Solving for ILambda_21_0, Initial residual = 0.0513562572, Final residual = 0.000191787016, No Iterations 4
GAMG:  Solving for ILambda_22_0, Initial residual = 0.0524471356, Final residual = 0.000253118689, No Iterations 4
GAMG:  Solving for ILambda_23_0, Initial residual = 0.0509778894, Final residual = 0.000456065792, No Iterations 4
GAMG:  Solving for ILambda_24_0, Initial residual = 0.071165276, Final residual = 0.00038669654, No Iterations 4
GAMG:  Solving for ILambda_25_0, Initial residual = 0.0560690775, Final residual = 0.000543133189, No Iterations 3
GAMG:  Solving for ILambda_26_0, Initial residual = 0.043514089, Final residual = 0.00027592197, No Iterations 3
GAMG:  Solving for ILambda_27_0, Initial residual = 0.0351473155, Final residual = 0.000162366336, No Iterations 3
GAMG:  Solving for ILambda_28_0, Initial residual = 0.0310448801, Final residual = 0.000137113974, No Iterations 3
GAMG:  Solving for ILambda_29_0, Initial residual = 0.0304781009, Final residual = 0.000224022033, No Iterations 3
GAMG:  Solving for ILambda_30_0, Initial residual = 0.0285159437, Final residual = 0.000136374092, No Iterations 4
GAMG:  Solving for ILambda_31_0, Initial residual = 0.0335701529, Final residual = 0.000167273109, No Iterations 3
GAMG:  Solving for ILambda_32_0, Initial residual = 0.0413640533, Final residual = 0.000121132891, No Iterations 3
GAMG:  Solving for ILambda_33_0, Initial residual = 0.0522314211, Final residual = 0.000146839388, No Iterations 3
GAMG:  Solving for ILambda_34_0, Initial residual = 0.0647833025, Final residual = 0.00022370659, No Iterations 3
GAMG:  Solving for ILambda_35_0, Initial residual = 0.029889153, Final residual = 0.000277218292, No Iterations 3
GAMG:  Solving for ILambda_36_0, Initial residual = 0.0347831406, Final residual = 0.000205333862, No Iterations 4
GAMG:  Solving for ILambda_37_0, Initial residual = 0.0790674914, Final residual = 0.000421166852, No Iterations 3
GAMG:  Solving for ILambda_38_0, Initial residual = 0.0737551652, Final residual = 0.000289502169, No Iterations 3
GAMG:  Solving for ILambda_39_0, Initial residual = 0.068248472, Final residual = 0.000232610032, No Iterations 3
GAMG:  Solving for ILambda_40_0, Initial residual = 0.0644619804, Final residual = 0.000260858566, No Iterations 3
GAMG:  Solving for ILambda_41_0, Initial residual = 0.0627964768, Final residual = 0.000573903171, No Iterations 3
GAMG:  Solving for ILambda_42_0, Initial residual = 0.0689968966, Final residual = 0.000221165118, No Iterations 4
GAMG:  Solving for ILambda_43_0, Initial residual = 0.0688809045, Final residual = 0.000282547928, No Iterations 3
GAMG:  Solving for ILambda_44_0, Initial residual = 0.0721841347, Final residual = 0.000352672289, No Iterations 3
GAMG:  Solving for ILambda_45_0, Initial residual = 0.0775643213, Final residual = 0.000553055625, No Iterations 3
GAMG:  Solving for ILambda_46_0, Initial residual = 0.0823837617, Final residual = 0.000201878173, No Iterations 4
GAMG:  Solving for ILambda_47_0, Initial residual = 0.0268859564, Final residual = 0.000198605086, No Iterations 4
GAMG:  Solving for ILambda_48_0, Initial residual = 0.0417893724, Final residual = 0.000253821907, No Iterations 4
GAMG:  Solving for ILambda_49_0, Initial residual = 0.0884178102, Final residual = 0.000660993341, No Iterations 3
GAMG:  Solving for ILambda_50_0, Initial residual = 0.0774837475, Final residual = 0.000251571882, No Iterations 3
GAMG:  Solving for ILambda_51_0, Initial residual = 0.0693848303, Final residual = 0.000176425743, No Iterations 3
GAMG:  Solving for ILambda_52_0, Initial residual = 0.0642897275, Final residual = 0.000143288463, No Iterations 3
GAMG:  Solving for ILambda_53_0, Initial residual = 0.0644029781, Final residual = 0.000186483375, No Iterations 3
GAMG:  Solving for ILambda_54_0, Initial residual = 0.0661978859, Final residual = 0.000384393322, No Iterations 3
GAMG:  Solving for ILambda_55_0, Initial residual = 0.0771975069, Final residual = 0.00017253586, No Iterations 3
GAMG:  Solving for ILambda_56_0, Initial residual = 0.0897258564, Final residual = 0.000172103006, No Iterations 3
GAMG:  Solving for ILambda_57_0, Initial residual = 0.105773213, Final residual = 0.000292449885, No Iterations 3
GAMG:  Solving for ILambda_58_0, Initial residual = 0.124958934, Final residual = 0.000518341926, No Iterations 3
GAMG:  Solving for ILambda_59_0, Initial residual = 0.0912480933, Final residual = 0.00026361306, No Iterations 4
GAMG:  Solving for ILambda_60_0, Initial residual = 0.109323927, Final residual = 0.000384911238, No Iterations 4
GAMG:  Solving for ILambda_61_0, Initial residual = 0.171235043, Final residual = 0.000804380861, No Iterations 3
GAMG:  Solving for ILambda_62_0, Initial residual = 0.171619427, Final residual = 0.000571202357, No Iterations 3
GAMG:  Solving for ILambda_63_0, Initial residual = 0.167828914, Final residual = 0.000459970322, No Iterations 3
GAMG:  Solving for ILambda_64_0, Initial residual = 0.163431647, Final residual = 0.000429851419, No Iterations 3
GAMG:  Solving for ILambda_65_0, Initial residual = 0.159282922, Final residual = 0.00060378801, No Iterations 3
GAMG:  Solving for ILambda_66_0, Initial residual = 0.161287126, Final residual = 0.000503048047, No Iterations 3
GAMG:  Solving for ILambda_67_0, Initial residual = 0.158576807, Final residual = 0.00044459368, No Iterations 3
GAMG:  Solving for ILambda_68_0, Initial residual = 0.159515083, Final residual = 0.000554594649, No Iterations 3
GAMG:  Solving for ILambda_69_0, Initial residual = 0.157009272, Final residual = 0.000758390746, No Iterations 3
GAMG:  Solving for ILambda_70_0, Initial residual = 0.0945727935, Final residual = 0.000195132764, No Iterations 4
GAMG:  Solving for ILambda_71_0, Initial residual = 0.0715536786, Final residual = 0.000402853666, No Iterations 4
GAMG:  Solving for ILambda_72_0, Initial residual = 0.103350042, Final residual = 0.000344561386, No Iterations 4
GAMG:  Solving for ILambda_73_0, Initial residual = 0.174217637, Final residual = 0.000946424721, No Iterations 3
GAMG:  Solving for ILambda_74_0, Initial residual = 0.172081979, Final residual = 0.000623194645, No Iterations 3
GAMG:  Solving for ILambda_75_0, Initial residual = 0.174268504, Final residual = 0.000453294235, No Iterations 3
GAMG:  Solving for ILambda_76_0, Initial residual = 0.172798953, Final residual = 0.000329886004, No Iterations 3
GAMG:  Solving for ILambda_77_0, Initial residual = 0.174481254, Final residual = 0.00163412038, No Iterations 2
GAMG:  Solving for ILambda_78_0, Initial residual = 0.182911567, Final residual = 0.000458036401, No Iterations 3
GAMG:  Solving for ILambda_79_0, Initial residual = 0.20400482, Final residual = 0.000400769254, No Iterations 3
GAMG:  Solving for ILambda_80_0, Initial residual = 0.22689077, Final residual = 0.000605992524, No Iterations 3
GAMG:  Solving for ILambda_81_0, Initial residual = 0.254169516, Final residual = 0.000987343767, No Iterations 3
GAMG:  Solving for ILambda_82_0, Initial residual = 0.286041792, Final residual = 0.0017981125, No Iterations 3
GAMG:  Solving for ILambda_83_0, Initial residual = 0.264817076, Final residual = 0.000794775014, No Iterations 4
GAMG:  Solving for ILambda_84_0, Initial residual = 0.347309283, Final residual = 0.00309536418, No Iterations 3
GAMG:  Solving for ILambda_85_0, Initial residual = 0.385361455, Final residual = 0.00193578324, No Iterations 3
GAMG:  Solving for ILambda_86_0, Initial residual = 0.390174119, Final residual = 0.00131287638, No Iterations 3
GAMG:  Solving for ILambda_87_0, Initial residual = 0.382842288, Final residual = 0.00093929218, No Iterations 3
GAMG:  Solving for ILambda_88_0, Initial residual = 0.371414075, Final residual = 0.000696242815, No Iterations 3
GAMG:  Solving for ILambda_89_0, Initial residual = 0.361238074, Final residual = 0.000683581354, No Iterations 3
GAMG:  Solving for ILambda_90_0, Initial residual = 0.35762473, Final residual = 0.000619726036, No Iterations 3
GAMG:  Solving for ILambda_91_0, Initial residual = 0.352260027, Final residual = 0.000836227495, No Iterations 3
GAMG:  Solving for ILambda_92_0, Initial residual = 0.345629185, Final residual = 0.00119256391, No Iterations 3
GAMG:  Solving for ILambda_93_0, Initial residual = 0.322938081, Final residual = 0.00167077311, No Iterations 3
GAMG:  Solving for ILambda_94_0, Initial residual = 0.240414378, Final residual = 0.0020812892, No Iterations 3
GAMG:  Solving for ILambda_95_0, Initial residual = 0.172789688, Final residual = 0.000672303841, No Iterations 4
GAMG:  Solving for ILambda_96_0, Initial residual = 0.301991694, Final residual = 0.00187886146, No Iterations 4
GAMG:  Solving for ILambda_97_0, Initial residual = 0.39860909, Final residual = 0.000917108768, No Iterations 4
GAMG:  Solving for ILambda_98_0, Initial residual = 0.40264488, Final residual = 0.00217093111, No Iterations 3
GAMG:  Solving for ILambda_99_0, Initial residual = 0.417256326, Final residual = 0.00129121028, No Iterations 3
GAMG:  Solving for ILambda_100_0, Initial residual = 0.42276195, Final residual = 0.000796132101, No Iterations 3
GAMG:  Solving for ILambda_101_0, Initial residual = 0.422275077, Final residual = 0.00366653668, No Iterations 2
GAMG:  Solving for ILambda_102_0, Initial residual = 0.430749728, Final residual = 0.00418737543, No Iterations 2
GAMG:  Solving for ILambda_103_0, Initial residual = 0.455029697, Final residual = 0.000991880803, No Iterations 3
GAMG:  Solving for ILambda_104_0, Initial residual = 0.483272918, Final residual = 0.00156672203, No Iterations 3
GAMG:  Solving for ILambda_105_0, Initial residual = 0.523326538, Final residual = 0.00229816427, No Iterations 3
GAMG:  Solving for ILambda_106_0, Initial residual = 0.569529331, Final residual = 0.00299579413, No Iterations 3
GAMG:  Solving for ILambda_107_0, Initial residual = 0.610327981, Final residual = 0.00256138637, No Iterations 3
GAMG:  Solving for ILambda_108_0, Initial residual = 0.659053234, Final residual = 0.00145655598, No Iterations 3
GAMG:  Solving for ILambda_109_0, Initial residual = 0.700297375, Final residual = 0.00502095801, No Iterations 2
GAMG:  Solving for ILambda_110_0, Initial residual = 0.69838098, Final residual = 0.00376035521, No Iterations 2
GAMG:  Solving for ILambda_111_0, Initial residual = 0.681942285, Final residual = 0.00300518726, No Iterations 2
GAMG:  Solving for ILambda_112_0, Initial residual = 0.67206499, Final residual = 0.00261038767, No Iterations 2
GAMG:  Solving for ILambda_113_0, Initial residual = 0.668283296, Final residual = 0.00265356336, No Iterations 2
GAMG:  Solving for ILambda_114_0, Initial residual = 0.670958313, Final residual = 0.0033562858, No Iterations 2
GAMG:  Solving for ILambda_115_0, Initial residual = 0.662564352, Final residual = 0.0047748051, No Iterations 2
GAMG:  Solving for ILambda_116_0, Initial residual = 0.636540113, Final residual = 0.00131557451, No Iterations 3
GAMG:  Solving for ILambda_117_0, Initial residual = 0.588340107, Final residual = 0.00250036674, No Iterations 3
GAMG:  Solving for ILambda_118_0, Initial residual = 0.495797873, Final residual = 0.00164621797, No Iterations 4
GAMG:  Solving for ILambda_119_0, Initial residual = 0.37001676, Final residual = 0.00250541047, No Iterations 4
GAMG:  Solving for ILambda_120_0, Initial residual = 0.465975174, Final residual = 0.00317939175, No Iterations 4
GAMG:  Solving for ILambda_121_0, Initial residual = 0.566166296, Final residual = 0.00558561237, No Iterations 3
GAMG:  Solving for ILambda_122_0, Initial residual = 0.648482469, Final residual = 0.00244586351, No Iterations 3
GAMG:  Solving for ILambda_123_0, Initial residual = 0.688980379, Final residual = 0.00139275354, No Iterations 3
GAMG:  Solving for ILambda_124_0, Initial residual = 0.720588932, Final residual = 0.0051762565, No Iterations 2
GAMG:  Solving for ILambda_125_0, Initial residual = 0.738143786, Final residual = 0.00486898996, No Iterations 2
GAMG:  Solving for ILambda_126_0, Initial residual = 0.746984638, Final residual = 0.00454170064, No Iterations 2
GAMG:  Solving for ILambda_127_0, Initial residual = 0.756483414, Final residual = 0.00443966412, No Iterations 2
GAMG:  Solving for ILambda_128_0, Initial residual = 0.761761683, Final residual = 0.00493921863, No Iterations 2
GAMG:  Solving for ILambda_129_0, Initial residual = 0.777277483, Final residual = 0.00566032832, No Iterations 2
GAMG:  Solving for ILambda_130_0, Initial residual = 0.795569062, Final residual = 0.0063207363, No Iterations 2
GAMG:  Solving for ILambda_131_0, Initial residual = 0.804416253, Final residual = 0.00725873073, No Iterations 2
GAMG:  Solving for ILambda_132_0, Initial residual = 0.831110146, Final residual = 0.00588695096, No Iterations 2
GAMG:  Solving for ILambda_133_0, Initial residual = 0.859171166, Final residual = 0.00321292333, No Iterations 2
GAMG:  Solving for ILambda_134_0, Initial residual = 0.86887159, Final residual = 0.00229590565, No Iterations 2
GAMG:  Solving for ILambda_135_0, Initial residual = 0.874916421, Final residual = 0.00182264057, No Iterations 2
GAMG:  Solving for ILambda_136_0, Initial residual = 0.880910268, Final residual = 0.00168031399, No Iterations 2
GAMG:  Solving for ILambda_137_0, Initial residual = 0.882119888, Final residual = 0.00218316405, No Iterations 2
GAMG:  Solving for ILambda_138_0, Initial residual = 0.869057904, Final residual = 0.00279410596, No Iterations 2
GAMG:  Solving for ILambda_139_0, Initial residual = 0.823773553, Final residual = 0.00334827136, No Iterations 2
GAMG:  Solving for ILambda_140_0, Initial residual = 0.781665498, Final residual = 0.00472683497, No Iterations 2
GAMG:  Solving for ILambda_141_0, Initial residual = 0.767355534, Final residual = 0.00153538121, No Iterations 3
GAMG:  Solving for ILambda_142_0, Initial residual = 0.660417771, Final residual = 0.0050665745, No Iterations 3
GAMG:  Solving for ILambda_143_0, Initial residual = 0.499643563, Final residual = 0.00289426814, No Iterations 4
GAMG:  Solving for ILambda_144_0, Initial residual = 0.736362157, Final residual = 0.00252837476, No Iterations 4
GAMG:  Solving for ILambda_145_0, Initial residual = 0.776983236, Final residual = 0.0028682771, No Iterations 3
GAMG:  Solving for ILambda_146_0, Initial residual = 0.781717453, Final residual = 0.00150598336, No Iterations 3
GAMG:  Solving for ILambda_147_0, Initial residual = 0.800926832, Final residual = 0.00493313448, No Iterations 2
GAMG:  Solving for ILambda_148_0, Initial residual = 0.83584889, Final residual = 0.0036882984, No Iterations 2
GAMG:  Solving for ILambda_149_0, Initial residual = 0.873227449, Final residual = 0.00459730906, No Iterations 2
GAMG:  Solving for ILambda_150_0, Initial residual = 0.886271061, Final residual = 0.00325552542, No Iterations 2
GAMG:  Solving for ILambda_151_0, Initial residual = 0.892087373, Final residual = 0.00292882679, No Iterations 2
GAMG:  Solving for ILambda_152_0, Initial residual = 0.895903699, Final residual = 0.00296958077, No Iterations 2
GAMG:  Solving for ILambda_153_0, Initial residual = 0.896902345, Final residual = 0.00317495977, No Iterations 2
GAMG:  Solving for ILambda_154_0, Initial residual = 0.894283084, Final residual = 0.00389397185, No Iterations 2
GAMG:  Solving for ILambda_155_0, Initial residual = 0.885838511, Final residual = 0.00524392878, No Iterations 2
GAMG:  Solving for ILambda_156_0, Initial residual = 0.887375166, Final residual = 0.00432922419, No Iterations 2
GAMG:  Solving for ILambda_157_0, Initial residual = 0.895724912, Final residual = 0.00245558113, No Iterations 2
GAMG:  Solving for ILambda_158_0, Initial residual = 0.899525612, Final residual = 0.0018220516, No Iterations 2
GAMG:  Solving for ILambda_159_0, Initial residual = 0.899396721, Final residual = 0.00154180303, No Iterations 2
GAMG:  Solving for ILambda_160_0, Initial residual = 0.895950996, Final residual = 0.0083231351, No Iterations 1
GAMG:  Solving for ILambda_161_0, Initial residual = 0.890396408, Final residual = 0.00879577202, No Iterations 1
GAMG:  Solving for ILambda_162_0, Initial residual = 0.877336809, Final residual = 0.00314062097, No Iterations 2
GAMG:  Solving for ILambda_163_0, Initial residual = 0.84106991, Final residual = 0.0032482199, No Iterations 2
GAMG:  Solving for ILambda_164_0, Initial residual = 0.806674045, Final residual = 0.00399260118, No Iterations 2
GAMG:  Solving for ILambda_165_0, Initial residual = 0.786024406, Final residual = 0.0066611541, No Iterations 2
GAMG:  Solving for ILambda_166_0, Initial residual = 0.789190592, Final residual = 0.0024528146, No Iterations 3
GAMG:  Solving for ILambda_167_0, Initial residual = 0.751220519, Final residual = 0.00676642257, No Iterations 3
GAMG:  Solving for ILambda_168_0, Initial residual = 0.742280917, Final residual = 0.00712678494, No Iterations 2
GAMG:  Solving for ILambda_169_0, Initial residual = 0.76357739, Final residual = 0.00604619174, No Iterations 2
GAMG:  Solving for ILambda_170_0, Initial residual = 0.787445282, Final residual = 0.00463989064, No Iterations 2
GAMG:  Solving for ILambda_171_0, Initial residual = 0.812073641, Final residual = 0.00370696121, No Iterations 2
GAMG:  Solving for ILambda_172_0, Initial residual = 0.837830614, Final residual = 0.00359747467, No Iterations 2
GAMG:  Solving for ILambda_173_0, Initial residual = 0.859886794, Final residual = 0.00473835551, No Iterations 2
GAMG:  Solving for ILambda_174_0, Initial residual = 0.868797478, Final residual = 0.0036080286, No Iterations 2
GAMG:  Solving for ILambda_175_0, Initial residual = 0.87181432, Final residual = 0.00328559375, No Iterations 2
GAMG:  Solving for ILambda_176_0, Initial residual = 0.872828758, Final residual = 0.0033023412, No Iterations 2
GAMG:  Solving for ILambda_177_0, Initial residual = 0.873448641, Final residual = 0.00333161968, No Iterations 2
GAMG:  Solving for ILambda_178_0, Initial residual = 0.871100142, Final residual = 0.00371307369, No Iterations 2
GAMG:  Solving for ILambda_179_0, Initial residual = 0.866905137, Final residual = 0.00461538931, No Iterations 2
GAMG:  Solving for ILambda_180_0, Initial residual = 0.866623924, Final residual = 0.00436943926, No Iterations 2
GAMG:  Solving for ILambda_181_0, Initial residual = 0.870700768, Final residual = 0.00348928656, No Iterations 2
GAMG:  Solving for ILambda_182_0, Initial residual = 0.87189771, Final residual = 0.00315993044, No Iterations 2
GAMG:  Solving for ILambda_183_0, Initial residual = 0.868361737, Final residual = 0.00326291913, No Iterations 2
GAMG:  Solving for ILambda_184_0, Initial residual = 0.867505335, Final residual = 0.00322010552, No Iterations 2
GAMG:  Solving for ILambda_185_0, Initial residual = 0.865471957, Final residual = 0.00334271556, No Iterations 2
GAMG:  Solving for ILambda_186_0, Initial residual = 0.857155762, Final residual = 0.00454611641, No Iterations 2
GAMG:  Solving for ILambda_187_0, Initial residual = 0.835074347, Final residual = 0.00380985199, No Iterations 2
GAMG:  Solving for ILambda_188_0, Initial residual = 0.810217219, Final residual = 0.0040384428, No Iterations 2
GAMG:  Solving for ILambda_189_0, Initial residual = 0.786188235, Final residual = 0.00468257563, No Iterations 2
GAMG:  Solving for ILambda_190_0, Initial residual = 0.763911202, Final residual = 0.00581052477, No Iterations 2
GAMG:  Solving for ILambda_191_0, Initial residual = 0.741856653, Final residual = 0.006877112, No Iterations 2
Radiation solver iter: 2
GAMG:  Solving for ILambda_0_0, Initial residual = 0.799459411, Final residual = 0.00334110817, No Iterations 2
GAMG:  Solving for ILambda_1_0, Initial residual = 0.813990466, Final residual = 0.00269679696, No Iterations 2
GAMG:  Solving for ILambda_2_0, Initial residual = 0.823904639, Final residual = 0.00210077613, No Iterations 2
GAMG:  Solving for ILambda_3_0, Initial residual = 0.828245722, Final residual = 0.00189995492, No Iterations 2
GAMG:  Solving for ILambda_4_0, Initial residual = 0.845495038, Final residual = 0.00186377502, No Iterations 2
GAMG:  Solving for ILambda_5_0, Initial residual = 0.863280805, Final residual = 0.00299054669, No Iterations 2
GAMG:  Solving for ILambda_6_0, Initial residual = 0.871370523, Final residual = 0.00344659749, No Iterations 1
GAMG:  Solving for ILambda_7_0, Initial residual = 0.869202116, Final residual = 0.00437207537, No Iterations 1
GAMG:  Solving for ILambda_8_0, Initial residual = 0.863800925, Final residual = 0.00509590359, No Iterations 1
GAMG:  Solving for ILambda_9_0, Initial residual = 0.85615765, Final residual = 0.00568545319, No Iterations 1
GAMG:  Solving for ILambda_10_0, Initial residual = 0.846542134, Final residual = 0.00630137246, No Iterations 1
GAMG:  Solving for ILambda_11_0, Initial residual = 0.83440261, Final residual = 0.00709192616, No Iterations 1
GAMG:  Solving for ILambda_12_0, Initial residual = 0.834315348, Final residual = 0.00700218749, No Iterations 1
GAMG:  Solving for ILambda_13_0, Initial residual = 0.84582794, Final residual = 0.00642912756, No Iterations 1
GAMG:  Solving for ILambda_14_0, Initial residual = 0.855615858, Final residual = 0.00591059154, No Iterations 1
GAMG:  Solving for ILambda_15_0, Initial residual = 0.86337699, Final residual = 0.0054084225, No Iterations 1
GAMG:  Solving for ILambda_16_0, Initial residual = 0.869402037, Final residual = 0.00482951506, No Iterations 1
GAMG:  Solving for ILambda_17_0, Initial residual = 0.871989105, Final residual = 0.00413616666, No Iterations 1
GAMG:  Solving for ILambda_18_0, Initial residual = 0.865089529, Final residual = 0.00523309624, No Iterations 2
GAMG:  Solving for ILambda_19_0, Initial residual = 0.848875036, Final residual = 0.003337251, No Iterations 2
GAMG:  Solving for ILambda_20_0, Initial residual = 0.834736081, Final residual = 0.0033054298, No Iterations 2
GAMG:  Solving for ILambda_21_0, Initial residual = 0.826499972, Final residual = 0.00361575954, No Iterations 2
GAMG:  Solving for ILambda_22_0, Initial residual = 0.815108771, Final residual = 0.00382433667, No Iterations 2
GAMG:  Solving for ILambda_23_0, Initial residual = 0.799940295, Final residual = 0.00399804455, No Iterations 2
GAMG:  Solving for ILambda_24_0, Initial residual = 0.705950403, Final residual = 0.00321332899, No Iterations 3
GAMG:  Solving for ILambda_25_0, Initial residual = 0.758617177, Final residual = 0.00709076845, No Iterations 2
GAMG:  Solving for ILambda_26_0, Initial residual = 0.789717237, Final residual = 0.0031687166, No Iterations 2
GAMG:  Solving for ILambda_27_0, Initial residual = 0.819206532, Final residual = 0.00134656122, No Iterations 2
GAMG:  Solving for ILambda_28_0, Initial residual = 0.849400367, Final residual = 0.00111014508, No Iterations 2
GAMG:  Solving for ILambda_29_0, Initial residual = 0.873196012, Final residual = 0.00163943581, No Iterations 2
GAMG:  Solving for ILambda_30_0, Initial residual = 0.883750158, Final residual = 0.00341929508, No Iterations 1
GAMG:  Solving for ILambda_31_0, Initial residual = 0.879161126, Final residual = 0.00471992946, No Iterations 1
GAMG:  Solving for ILambda_32_0, Initial residual = 0.870531801, Final residual = 0.00593673495, No Iterations 1
GAMG:  Solving for ILambda_33_0, Initial residual = 0.858250921, Final residual = 0.0074111174, No Iterations 1
GAMG:  Solving for ILambda_34_0, Initial residual = 0.840882503, Final residual = 0.00212812622, No Iterations 2
GAMG:  Solving for ILambda_35_0, Initial residual = 0.817590952, Final residual = 0.00283785446, No Iterations 2
GAMG:  Solving for ILambda_36_0, Initial residual = 0.816570763, Final residual = 0.00390862939, No Iterations 2
GAMG:  Solving for ILambda_37_0, Initial residual = 0.838000944, Final residual = 0.0030095936, No Iterations 2
GAMG:  Solving for ILambda_38_0, Initial residual = 0.854232423, Final residual = 0.00244537687, No Iterations 2
GAMG:  Solving for ILambda_39_0, Initial residual = 0.865884846, Final residual = 0.00219570166, No Iterations 2
GAMG:  Solving for ILambda_40_0, Initial residual = 0.873997309, Final residual = 0.00861945067, No Iterations 1
GAMG:  Solving for ILambda_41_0, Initial residual = 0.878442118, Final residual = 0.00764567252, No Iterations 1
GAMG:  Solving for ILambda_42_0, Initial residual = 0.869427616, Final residual = 0.0047117458, No Iterations 2
GAMG:  Solving for ILambda_43_0, Initial residual = 0.849897948, Final residual = 0.00343318159, No Iterations 2
GAMG:  Solving for ILambda_44_0, Initial residual = 0.824972133, Final residual = 0.00435505069, No Iterations 2
GAMG:  Solving for ILambda_45_0, Initial residual = 0.800327004, Final residual = 0.00707206491, No Iterations 2
GAMG:  Solving for ILambda_46_0, Initial residual = 0.771037435, Final residual = 0.00224270314, No Iterations 3
GAMG:  Solving for ILambda_47_0, Initial residual = 0.713176881, Final residual = 0.00310163686, No Iterations 3
GAMG:  Solving for ILambda_48_0, Initial residual = 0.683697069, Final residual = 0.00211637896, No Iterations 4
GAMG:  Solving for ILambda_49_0, Initial residual = 0.733838429, Final residual = 0.0028538679, No Iterations 3
GAMG:  Solving for ILambda_50_0, Initial residual = 0.746806702, Final residual = 0.00520478434, No Iterations 2
GAMG:  Solving for ILambda_51_0, Initial residual = 0.799139083, Final residual = 0.002116865, No Iterations 2
GAMG:  Solving for ILambda_52_0, Initial residual = 0.837792848, Final residual = 0.00124046165, No Iterations 2
GAMG:  Solving for ILambda_53_0, Initial residual = 0.864638561, Final residual = 0.00156057647, No Iterations 2
GAMG:  Solving for ILambda_54_0, Initial residual = 0.876140232, Final residual = 0.00646714971, No Iterations 1
GAMG:  Solving for ILambda_55_0, Initial residual = 0.871092873, Final residual = 0.00793501748, No Iterations 1
[...]
GAMG:  Solving for ILambda_66_0, Initial residual = 3.57462782e-11, Final residual = 1.33576098e-11, No Iterations 1
GAMG:  Solving for ILambda_67_0, Initial residual = 4.10500368e-11, Final residual = 1.71093325e-11, No Iterations 1
GAMG:  Solving for ILambda_68_0, Initial residual = 4.13446411e-11, Final residual = 1.75398688e-11, No Iterations 1
GAMG:  Solving for ILambda_69_0, Initial residual = 4.17612674e-11, Final residual = 1.80830843e-11, No Iterations 1
GAMG:  Solving for ILambda_70_0, Initial residual = 4.13769944e-11, Final residual = 1.83125339e-11, No Iterations 1
GAMG:  Solving for ILambda_71_0, Initial residual = 4.53544575e-11, Final residual = 2.0754289e-11, No Iterations 1
GAMG:  Solving for ILambda_72_0, Initial residual = 8.62712758e-11, Final residual = 4.28177049e-11, No Iterations 1
GAMG:  Solving for ILambda_73_0, Initial residual = 6.07500154e-11, Final residual = 2.94730942e-11, No Iterations 1
GAMG:  Solving for ILambda_74_0, Initial residual = 5.33004526e-11, Final residual = 2.54140553e-11, No Iterations 1
GAMG:  Solving for ILambda_75_0, Initial residual = 4.78522474e-11, Final residual = 2.21070891e-11, No Iterations 1
GAMG:  Solving for ILambda_76_0, Initial residual = 4.12037023e-11, Final residual = 1.77531377e-11, No Iterations 1
GAMG:  Solving for ILambda_77_0, Initial residual = 3.12804404e-11, Final residual = 1.11055336e-11, No Iterations 1
GAMG:  Solving for ILambda_78_0, Initial residual = 2.48057765e-11, Final residual = 7.24724711e-12, No Iterations 1
GAMG:  Solving for ILambda_79_0, Initial residual = 3.04056982e-11, Final residual = 1.1982143e-11, No Iterations 1
GAMG:  Solving for ILambda_80_0, Initial residual = 2.96899753e-11, Final residual = 1.26476598e-11, No Iterations 1
GAMG:  Solving for ILambda_81_0, Initial residual = 2.18637122e-11, Final residual = 8.80192547e-12, No Iterations 1
GAMG:  Solving for ILambda_82_0, Initial residual = 1.38065481e-11, Final residual = 4.81573301e-12, No Iterations 1
GAMG:  Solving for ILambda_83_0, Initial residual = 1.16655259e-11, Final residual = 4.08825498e-12, No Iterations 1
GAMG:  Solving for ILambda_84_0, Initial residual = 1.1844974e-11, Final residual = 4.07945107e-12, No Iterations 1
GAMG:  Solving for ILambda_85_0, Initial residual = 1.50388517e-11, Final residual = 5.17749783e-12, No Iterations 1
GAMG:  Solving for ILambda_86_0, Initial residual = 2.53775917e-11, Final residual = 1.02892312e-11, No Iterations 1
GAMG:  Solving for ILambda_87_0, Initial residual = 3.805471e-11, Final residual = 1.68963262e-11, No Iterations 1
GAMG:  Solving for ILambda_88_0, Initial residual = 4.20412557e-11, Final residual = 1.77937747e-11, No Iterations 1
GAMG:  Solving for ILambda_89_0, Initial residual = 3.56610376e-11, Final residual = 1.1865184e-11, No Iterations 1
GAMG:  Solving for ILambda_90_0, Initial residual = 4.89612284e-11, Final residual = 2.00438803e-11, No Iterations 1
GAMG:  Solving for ILambda_91_0, Initial residual = 6.91790647e-11, Final residual = 3.37264844e-11, No Iterations 1
GAMG:  Solving for ILambda_92_0, Initial residual = 7.85947494e-11, Final residual = 3.98573138e-11, No Iterations 1
GAMG:  Solving for ILambda_93_0, Initial residual = 8.63878589e-11, Final residual = 4.48340257e-11, No Iterations 1
GAMG:  Solving for ILambda_94_0, Initial residual = 9.77736755e-11, Final residual = 5.18977962e-11, No Iterations 1
GAMG:  Solving for ILambda_95_0, Initial residual = 1.07383886e-10, Final residual = 5.54990251e-11, No Iterations 1
GAMG:  Solving for ILambda_96_0, Initial residual = 1.26470971e-10, Final residual = 5.89055632e-11, No Iterations 1
GAMG:  Solving for ILambda_97_0, Initial residual = 8.87118502e-11, Final residual = 4.03774577e-11, No Iterations 1
GAMG:  Solving for ILambda_98_0, Initial residual = 7.11304573e-11, Final residual = 3.14345396e-11, No Iterations 1
GAMG:  Solving for ILambda_99_0, Initial residual = 6.16395233e-11, Final residual = 2.6201428e-11, No Iterations 1
GAMG:  Solving for ILambda_100_0, Initial residual = 5.51809796e-11, Final residual = 2.24248962e-11, No Iterations 1
GAMG:  Solving for ILambda_101_0, Initial residual = 4.83983775e-11, Final residual = 1.80902515e-11, No Iterations 1
GAMG:  Solving for ILambda_102_0, Initial residual = 3.81418552e-11, Final residual = 1.19589002e-11, No Iterations 1
GAMG:  Solving for ILambda_103_0, Initial residual = 4.18392113e-11, Final residual = 1.58932883e-11, No Iterations 1
GAMG:  Solving for ILambda_104_0, Initial residual = 4.46363368e-11, Final residual = 1.88303569e-11, No Iterations 1
GAMG:  Solving for ILambda_105_0, Initial residual = 4.17148503e-11, Final residual = 1.76533794e-11, No Iterations 1
GAMG:  Solving for ILambda_106_0, Initial residual = 3.60220451e-11, Final residual = 1.43077732e-11, No Iterations 1
GAMG:  Solving for ILambda_107_0, Initial residual = 3.28497212e-11, Final residual = 1.12515162e-11, No Iterations 1
GAMG:  Solving for ILambda_108_0, Initial residual = 2.79632235e-11, Final residual = 7.77432752e-12, No Iterations 1
GAMG:  Solving for ILambda_109_0, Initial residual = 2.96946071e-11, Final residual = 9.29007727e-12, No Iterations 1
GAMG:  Solving for ILambda_110_0, Initial residual = 3.75521719e-11, Final residual = 1.3593533e-11, No Iterations 1
GAMG:  Solving for ILambda_111_0, Initial residual = 4.7257731e-11, Final residual = 1.88502703e-11, No Iterations 1
GAMG:  Solving for ILambda_112_0, Initial residual = 4.96885766e-11, Final residual = 1.88414158e-11, No Iterations 1
GAMG:  Solving for ILambda_113_0, Initial residual = 4.7676759e-11, Final residual = 1.52905869e-11, No Iterations 1
GAMG:  Solving for ILambda_114_0, Initial residual = 6.71162966e-11, Final residual = 2.72743482e-11, No Iterations 1
GAMG:  Solving for ILambda_115_0, Initial residual = 7.99178754e-11, Final residual = 3.5704162e-11, No Iterations 1
GAMG:  Solving for ILambda_116_0, Initial residual = 9.15968426e-11, Final residual = 4.28821361e-11, No Iterations 1
GAMG:  Solving for ILambda_117_0, Initial residual = 1.03987138e-10, Final residual = 5.00687788e-11, No Iterations 1
GAMG:  Solving for ILambda_118_0, Initial residual = 1.14860778e-10, Final residual = 5.4883491e-11, No Iterations 1
GAMG:  Solving for ILambda_119_0, Initial residual = 1.37142854e-10, Final residual = 6.44099445e-11, No Iterations 1
GAMG:  Solving for ILambda_120_0, Initial residual = 1.42579546e-10, Final residual = 5.80613052e-11, No Iterations 1
GAMG:  Solving for ILambda_121_0, Initial residual = 1.06200936e-10, Final residual = 4.18721452e-11, No Iterations 1
GAMG:  Solving for ILambda_122_0, Initial residual = 8.63020812e-11, Final residual = 3.31507067e-11, No Iterations 1
GAMG:  Solving for ILambda_123_0, Initial residual = 7.31719596e-11, Final residual = 2.63330902e-11, No Iterations 1
GAMG:  Solving for ILambda_124_0, Initial residual = 6.75554666e-11, Final residual = 2.33029398e-11, No Iterations 1
GAMG:  Solving for ILambda_125_0, Initial residual = 7.04972218e-11, Final residual = 2.52260813e-11, No Iterations 1
GAMG:  Solving for ILambda_126_0, Initial residual = 6.07615498e-11, Final residual = 1.95917102e-11, No Iterations 1
GAMG:  Solving for ILambda_127_0, Initial residual = 5.83449775e-11, Final residual = 1.98020657e-11, No Iterations 1
GAMG:  Solving for ILambda_128_0, Initial residual = 5.93417198e-11, Final residual = 2.18298767e-11, No Iterations 1
GAMG:  Solving for ILambda_129_0, Initial residual = 5.7801356e-11, Final residual = 2.12424629e-11, No Iterations 1
GAMG:  Solving for ILambda_130_0, Initial residual = 5.5466113e-11, Final residual = 1.90029169e-11, No Iterations 1
GAMG:  Solving for ILambda_131_0, Initial residual = 5.60137994e-11, Final residual = 1.66473861e-11, No Iterations 1
GAMG:  Solving for ILambda_132_0, Initial residual = 5.05005908e-11, Final residual = 1.26769413e-11, No Iterations 1
GAMG:  Solving for ILambda_133_0, Initial residual = 4.69727399e-11, Final residual = 1.22991978e-11, No Iterations 1
GAMG:  Solving for ILambda_134_0, Initial residual = 5.0274816e-11, Final residual = 1.46344367e-11, No Iterations 1
GAMG:  Solving for ILambda_135_0, Initial residual = 5.74980788e-11, Final residual = 1.86106905e-11, No Iterations 1
GAMG:  Solving for ILambda_136_0, Initial residual = 5.98621384e-11, Final residual = 1.82806354e-11, No Iterations 1
GAMG:  Solving for ILambda_137_0, Initial residual = 6.7654065e-11, Final residual = 2.10016406e-11, No Iterations 1
GAMG:  Solving for ILambda_138_0, Initial residual = 8.49722058e-11, Final residual = 3.14356854e-11, No Iterations 1
GAMG:  Solving for ILambda_139_0, Initial residual = 7.75202532e-11, Final residual = 2.63758651e-11, No Iterations 1
GAMG:  Solving for ILambda_140_0, Initial residual = 8.32776549e-11, Final residual = 2.94353103e-11, No Iterations 1
GAMG:  Solving for ILambda_141_0, Initial residual = 9.4839921e-11, Final residual = 3.52608764e-11, No Iterations 1
GAMG:  Solving for ILambda_142_0, Initial residual = 1.11393943e-10, Final residual = 4.22938821e-11, No Iterations 1
GAMG:  Solving for ILambda_143_0, Initial residual = 1.4441367e-10, Final residual = 5.7939437e-11, No Iterations 1
GAMG:  Solving for ILambda_144_0, Initial residual = 1.79450957e-10, Final residual = 7.23315184e-11, No Iterations 1
GAMG:  Solving for ILambda_145_0, Initial residual = 1.40852599e-10, Final residual = 5.4330923e-11, No Iterations 1
GAMG:  Solving for ILambda_146_0, Initial residual = 1.1661146e-10, Final residual = 4.36433551e-11, No Iterations 1
GAMG:  Solving for ILambda_147_0, Initial residual = 1.01660041e-10, Final residual = 3.64691949e-11, No Iterations 1
GAMG:  Solving for ILambda_148_0, Initial residual = 9.41696076e-11, Final residual = 3.24984013e-11, No Iterations 1
GAMG:  Solving for ILambda_149_0, Initial residual = 9.93671431e-11, Final residual = 3.60869452e-11, No Iterations 1
GAMG:  Solving for ILambda_150_0, Initial residual = 9.39769375e-11, Final residual = 3.3153128e-11, No Iterations 1
GAMG:  Solving for ILambda_151_0, Initial residual = 8.45476145e-11, Final residual = 2.85264288e-11, No Iterations 1
GAMG:  Solving for ILambda_152_0, Initial residual = 8.36360422e-11, Final residual = 2.92151608e-11, No Iterations 1
GAMG:  Solving for ILambda_153_0, Initial residual = 8.30160109e-11, Final residual = 2.92280135e-11, No Iterations 1
GAMG:  Solving for ILambda_154_0, Initial residual = 8.23410242e-11, Final residual = 2.78971311e-11, No Iterations 1
GAMG:  Solving for ILambda_155_0, Initial residual = 8.65787902e-11, Final residual = 2.85029768e-11, No Iterations 1
GAMG:  Solving for ILambda_156_0, Initial residual = 8.32661467e-11, Final residual = 2.59127237e-11, No Iterations 1
GAMG:  Solving for ILambda_157_0, Initial residual = 7.41979274e-11, Final residual = 2.13110831e-11, No Iterations 1
GAMG:  Solving for ILambda_158_0, Initial residual = 7.19924439e-11, Final residual = 2.02334269e-11, No Iterations 1
GAMG:  Solving for ILambda_159_0, Initial residual = 7.44359525e-11, Final residual = 2.10140864e-11, No Iterations 1
GAMG:  Solving for ILambda_160_0, Initial residual = 7.90563201e-11, Final residual = 2.21692569e-11, No Iterations 1
GAMG:  Solving for ILambda_161_0, Initial residual = 9.64636593e-11, Final residual = 3.15272931e-11, No Iterations 1
GAMG:  Solving for ILambda_162_0, Initial residual = 1.0246322e-10, Final residual = 3.45406731e-11, No Iterations 1
GAMG:  Solving for ILambda_163_0, Initial residual = 9.34079982e-11, Final residual = 2.82037612e-11, No Iterations 1
GAMG:  Solving for ILambda_164_0, Initial residual = 9.90150653e-11, Final residual = 3.0954241e-11, No Iterations 1
GAMG:  Solving for ILambda_165_0, Initial residual = 1.12109022e-10, Final residual = 3.71548444e-11, No Iterations 1
GAMG:  Solving for ILambda_166_0, Initial residual = 1.36252563e-10, Final residual = 4.85772548e-11, No Iterations 1
GAMG:  Solving for ILambda_167_0, Initial residual = 1.76878282e-10, Final residual = 6.94355013e-11, No Iterations 1
GAMG:  Solving for ILambda_168_0, Initial residual = 2.15456911e-10, Final residual = 8.60469384e-11, No Iterations 1
GAMG:  Solving for ILambda_169_0, Initial residual = 1.8156546e-10, Final residual = 6.85171253e-11, No Iterations 1
GAMG:  Solving for ILambda_170_0, Initial residual = 1.6432719e-10, Final residual = 6.12033824e-11, No Iterations 1
GAMG:  Solving for ILambda_171_0, Initial residual = 1.54175693e-10, Final residual = 5.71102443e-11, No Iterations 1
GAMG:  Solving for ILambda_172_0, Initial residual = 1.52940031e-10, Final residual = 5.74446356e-11, No Iterations 1
GAMG:  Solving for ILambda_173_0, Initial residual = 1.77003873e-10, Final residual = 7.20218838e-11, No Iterations 1
GAMG:  Solving for ILambda_174_0, Initial residual = 2.37003659e-10, Final residual = 9.95732895e-11, No Iterations 1
GAMG:  Solving for ILambda_175_0, Initial residual = 2.85126331e-10, Final residual = 1.11985365e-10, No Iterations 1
GAMG:  Solving for ILambda_176_0, Initial residual = 2.84738482e-10, Final residual = 1.10960858e-10, No Iterations 1
GAMG:  Solving for ILambda_177_0, Initial residual = 2.18642038e-10, Final residual = 8.6546253e-11, No Iterations 1
GAMG:  Solving for ILambda_178_0, Initial residual = 1.67596346e-10, Final residual = 6.44622994e-11, No Iterations 1
GAMG:  Solving for ILambda_179_0, Initial residual = 1.81036781e-10, Final residual = 7.55421704e-11, No Iterations 1
GAMG:  Solving for ILambda_180_0, Initial residual = 1.75044267e-10, Final residual = 7.08833835e-11, No Iterations 1
GAMG:  Solving for ILambda_181_0, Initial residual = 1.59185114e-10, Final residual = 5.83674433e-11, No Iterations 1
GAMG:  Solving for ILambda_182_0, Initial residual = 2.50357354e-10, Final residual = 9.78697625e-11, No Iterations 1
GAMG:  Solving for ILambda_183_0, Initial residual = 4.0788193e-09, Final residual = 1.93613447e-09, No Iterations 1
GAMG:  Solving for ILambda_184_0, Initial residual = 3.40766107e-09, Final residual = 1.66101114e-09, No Iterations 1
GAMG:  Solving for ILambda_185_0, Initial residual = 1.37380229e-09, Final residual = 6.42081007e-10, No Iterations 1
GAMG:  Solving for ILambda_186_0, Initial residual = 7.3357293e-10, Final residual = 3.32068988e-10, No Iterations 1
GAMG:  Solving for ILambda_187_0, Initial residual = 1.49242499e-10, Final residual = 4.98825441e-11, No Iterations 1
GAMG:  Solving for ILambda_188_0, Initial residual = 1.47096202e-10, Final residual = 4.89588995e-11, No Iterations 1
GAMG:  Solving for ILambda_189_0, Initial residual = 1.57578207e-10, Final residual = 5.40351289e-11, No Iterations 1
GAMG:  Solving for ILambda_190_0, Initial residual = 1.77353614e-10, Final residual = 6.39984499e-11, No Iterations 1
GAMG:  Solving for ILambda_191_0, Initial residual = 2.05861239e-10, Final residual = 7.89591131e-11, No Iterations 1
ExecutionTime = 6136.44 s  ClockTime = 6143 s

regIOobject::readIfModified() : 
    Re-reading object controlDict from file "/home/cong/Desktop/AIVC/Case5/system/controlDict"
wallHeatFlux wallHeatFlux output:

Wall heat fluxes [W]
room_SIDE2
    convective: 0
    radiative:  -26.5330114
    total:      -26.5330114
    Temperature : min = 293.55, max = 293.55, average = 293.55
room_FLOOR
    convective: 0
    radiative:  -19.1260552
    total:      -19.1260552
    Temperature : min = 293.55, max = 293.55, average = 293.55
room_CEILING
    convective: 0
    radiative:  -5.43761199
    total:      -5.43761199
    Temperature : min = 293.55, max = 293.55, average = 293.55
room_BACK
    convective: 0
    radiative:  -10.031084
    total:      -10.031084
    Temperature : min = 293.55, max = 293.55, average = 293.55
room_SIDE1
    convective: 0
    radiative:  -26.3183512
    total:      -26.3183512
    Temperature : min = 293.55, max = 293.55, average = 293.55
manikin
    convective: 1918.61557
    radiative:  101.181479
    total:      2019.79704
    Temperature : min = 307.15, max = 307.15, average = 307.15

yPlusRAS yplusRAS output:
    patch room_SIDE2 y+ : min = 0.628826338, max = 2.88619683, average = 2.70844379
    patch room_FLOOR y+ : min = 0.160969906, max = 2.88619649, average = 1.86929758
    patch room_CEILING y+ : min = 0.747111756, max = 2.8861965, average = 2.67122461
    patch room_BACK y+ : min = 1.00747525, max = 6.33815513, average = 1.42396152
    patch room_SIDE1 y+ : min = 0.628826834, max = 2.88619682, average = 2.70843579
    patch manikin y+ : min = 0.0548866625, max = 2.82299245, average = 0.322204425

yPlusRASLowRe yplusRASLowRe output:
room_SIDE2
    y+ : min = 0, max = 0, average = 0
    y : min = 0.000544684214, max = 0.00250000001, average = 0.00234603179
room_FLOOR
    y+ : min = 0, max = 0, average = 0
    y : min = 0.000139430812, max = 0.00249999971, average = 0.00161917022
room_CEILING
    y+ : min = 0, max = 0, average = 0
    y : min = 0.000647142072, max = 0.00249999973, average = 0.00231379284
room_BACK
    y+ : min = 0, max = 0, average = 0
    y : min = 0.000872666798, max = 0.00549005797, average = 0.00123342378
room_SIDE1
    y+ : min = 0, max = 0, average = 0
    y : min = 0.000544684643, max = 0.0025, average = 0.00234602486
manikin
    y+ : min = 0, max = 0, average = 0
    y : min = 4.97449872e-05, max = 0.00255854003, average = 0.000292020944

forceCoeffs forceCoeffs1 output:
    Cm    = -4499.86349
    Cd    = -99.5598637
    Cl    = -8664.87679
    Cl(f) = -8832.30188
    Cl(r) = 167.425092

Time = 352

ExecutionTime = 6213.02 s  ClockTime = 6221 s

wallHeatFlux wallHeatFlux output:

Wall heat fluxes [W]
room_SIDE2
    convective: 0
    radiative:  -26.5330114
    total:      -26.5330114
    Temperature : min = 293.55, max = 293.55, average = 293.55
room_FLOOR
    convective: 0
    radiative:  -19.1260552
    total:      -19.1260552
    Temperature : min = 293.55, max = 293.55, average = 293.55
room_CEILING
    convective: 0
    radiative:  -5.43761199
    total:      -5.43761199
    Temperature : min = 293.55, max = 293.55, average = 293.55
room_BACK
    convective: 0
    radiative:  -10.031084
    total:      -10.031084
    Temperature : min = 293.55, max = 293.55, average = 293.55
room_SIDE1
    convective: 0
    radiative:  -26.3183512
    total:      -26.3183512
    Temperature : min = 293.55, max = 293.55, average = 293.55
manikin
    convective: 1918.61557
    radiative:  101.181479
    total:      2019.79704
    Temperature : min = 307.15, max = 307.15, average = 307.15

    writing field wallHeatFlux

yPlusRAS yplusRAS output:
    patch room_SIDE2 y+ : min = 0.628826338, max = 2.88619683, average = 2.70844379
    patch room_FLOOR y+ : min = 0.160969906, max = 2.88619649, average = 1.86929758
    patch room_CEILING y+ : min = 0.747111756, max = 2.8861965, average = 2.67122461
    patch room_BACK y+ : min = 1.00747525, max = 6.33815513, average = 1.42396152
    patch room_SIDE1 y+ : min = 0.628826834, max = 2.88619682, average = 2.70843579
    patch manikin y+ : min = 0.0548866625, max = 2.82299245, average = 0.322204425
    writing field yPlusRAS


yPlusRASLowRe yplusRASLowRe output:
room_SIDE2
    y+ : min = 0, max = 0, average = 0
    y : min = 0.000544684214, max = 0.00250000001, average = 0.00234603179
room_FLOOR
    y+ : min = 0, max = 0, average = 0
    y : min = 0.000139430812, max = 0.00249999971, average = 0.00161917022
room_CEILING
    y+ : min = 0, max = 0, average = 0
    y : min = 0.000647142072, max = 0.00249999973, average = 0.00231379284
room_BACK
    y+ : min = 0, max = 0, average = 0
    y : min = 0.000872666798, max = 0.00549005797, average = 0.00123342378
room_SIDE1
    y+ : min = 0, max = 0, average = 0
    y : min = 0.000544684643, max = 0.0025, average = 0.00234602486
manikin
    y+ : min = 0, max = 0, average = 0
    y : min = 4.97449872e-05, max = 0.00255854003, average = 0.000292020944

    writing field yPlusRASLowRe

forceCoeffs forceCoeffs1 output:
    Cm    = -4499.86349
    Cd    = -99.5598637
    Cl    = -8664.87679
    Cl(f) = -8832.30188
    Cl(r) = 167.425092

End

Finalising parallel run
