/*---------------------------------------------------------------------------*\
| =========                 |                                                 |
| \\      /  F ield         | OpenFOAM: The Open Source CFD Toolbox           |
|  \\    /   O peration     | Version:  2.3.1                                 |
|   \\  /    A nd           | Web:      www.OpenFOAM.org                      |
|    \\/     M anipulation  |                                                 |
\*---------------------------------------------------------------------------*/
Build  : 2.3.1-bcfaaa7b8660
Exec   : buoyantSimpleFoam -parallel
Date   : May 17 2017
Time   : 14:00:14
Host   : "ubuntu"
PID    : 3531
Case   : /home/cong/Desktop/AIVC/Case5
nProcs : 4
Slaves : 
3
(
"ubuntu.3532"
"ubuntu.3533"
"ubuntu.3534"
)

Pstream initialized with:
    floatTransfer      : 0
    nProcsSimpleSum    : 0
    commsType          : nonBlocking
    polling iterations : 0
sigFpe : Enabling floating point exception trapping (FOAM_SIGFPE).
fileModificationChecking : Monitoring run-time modified files using timeStampMaster
allowSystemOperations : Allowing user-supplied system call operations

// * * * * * * * * * * * * * * * * * * * * * * * * * * * * * * * * * * * * * //
Create time

Create mesh for time = 0


Reading g
Reading thermophysical properties

Selecting thermodynamics package 
{
    type            heRhoThermo;
    mixture         pureMixture;
    transport       const;
    thermo          hConst;
    equationOfState perfectGas;
    specie          specie;
    energy          sensibleEnthalpy;
}

Reading field U

Reading/calculating face flux field phi

Creating turbulence model

Selecting RAS turbulence model kOmegaSST
kOmegaSSTCoeffs
{
    alphaK1         0.85;
    alphaK2         1;
    alphaOmega1     0.5;
    alphaOmega2     0.856;
    Prt             1;
    gamma1          0.555555556;
    gamma2          0.44;
    beta1           0.075;
    beta2           0.0828;
    betaStar        0.09;
    a1              0.31;
    b1              1;
    c1              10;
    F3              false;
}

Calculating field g.h

Reading field p_rgh

No finite volume options present

Selecting radiationModel none

SIMPLE: convergence criteria
    field "(p_rgh|p)"	 tolerance 1e-07
    field U	 tolerance 1e-08
    field h	 tolerance 1e-08
    field "(k|epsilon|omega)"	 tolerance 1e-08


Starting time loop

forceCoeffs forceCoeffs1:
    Not including porosity effects

Time = 1

DILUPBiCG:  Solving for Ux, Initial residual = 1, Final residual = 0.0131151112, No Iterations 1
DILUPBiCG:  Solving for Uy, Initial residual = 1, Final residual = 0.0104358316, No Iterations 1
DILUPBiCG:  Solving for Uz, Initial residual = 1, Final residual = 0.0120483401, No Iterations 1
DILUPBiCG:  Solving for h, Initial residual = 1, Final residual = 0.00665639093, No Iterations 1
GAMG:  Solving for p_rgh, Initial residual = 0.651035328, Final residual = 0.00442723679, No Iterations 9
time step continuity errors : sum local = 0.00346362613, global = -0.000237219743, cumulative = -0.000237219743
rho max/min : 1.20274468 1.146646
smoothSolver:  Solving for omega, Initial residual = 0.126944514, Final residual = 0.00972174653, No Iterations 3
smoothSolver:  Solving for k, Initial residual = 1, Final residual = 0.0664894295, No Iterations 4
ExecutionTime = 18.68 s  ClockTime = 19 s

wallHeatFlux wallHeatFlux output:

Wall heat fluxes [W]
room_SIDE2
    convective: 0
    radiative:  -0
    total:      0
    Temperature : min = 293.519317, max = 293.589917, average = 293.550003
room_FLOOR
    convective: 0
    radiative:  -0
    total:      0
    Temperature : min = 293.46993, max = 293.569274, average = 293.550023
room_CEILING
    convective: 0
    radiative:  -0
    total:      0
    Temperature : min = 293.55, max = 293.656013, average = 293.550153
room_BACK
    convective: 0
    radiative:  -0
    total:      0
    Temperature : min = 293.55, max = 293.55, average = 293.55
room_SIDE1
    convective: 0
    radiative:  -0
    total:      0
    Temperature : min = 293.485143, max = 293.632189, average = 293.550006
manikin
    convective: 1914.28781
    radiative:  -0
    total:      1914.28781
    Temperature : min = 307.15, max = 307.15, average = 307.15

yPlusRAS yplusRAS output:
    patch room_SIDE2 y+ : min = 0.59857202, max = 2.94505848, average = 2.59469947
    patch room_FLOOR y+ : min = 0.136073597, max = 2.94717235, average = 1.7896526
    patch room_CEILING y+ : min = 0.71104381, max = 2.94564334, average = 2.55884894
    patch room_BACK y+ : min = 0.956951555, max = 6.44273076, average = 1.37244206
    patch room_SIDE1 y+ : min = 0.597637863, max = 2.94405214, average = 2.59450846
    patch manikin y+ : min = 0.0468295749, max = 2.7962654, average = 0.306961412

yPlusRASLowRe yplusRASLowRe output:
room_SIDE2
    y+ : min = 0.0234892967, max = 3.84451408, average = 1.39667773
    y : min = 0.000544684214, max = 0.00250000001, average = 0.00234603179
room_FLOOR
    y+ : min = 0.0616049668, max = 3.67138552, average = 0.912032263
    y : min = 0.000139430812, max = 0.00249999971, average = 0.00161917022
room_CEILING
    y+ : min = 0.160531572, max = 4.55755264, average = 1.39802997
    y : min = 0.000647142072, max = 0.00249999973, average = 0.00231379284
room_BACK
    y+ : min = 0.0378425494, max = 61.8603312, average = 0.93489158
    y : min = 0.000872666798, max = 0.00549005797, average = 0.00123342378
room_SIDE1
    y+ : min = 0.0240809639, max = 4.31793227, average = 1.39747067
    y : min = 0.000544684643, max = 0.0025, average = 0.00234602486
manikin
    y+ : min = 0.00794671679, max = 1.21401446, average = 0.111112525
    y : min = 4.97449872e-05, max = 0.00255854003, average = 0.000292020944

forceCoeffs forceCoeffs1 output:
    Cm    = -4522.4259
    Cd    = 0.118053746
    Cl    = -8708.85989
    Cl(f) = -8876.85585
    Cl(r) = 167.995956

Time = 2

DILUPBiCG:  Solving for Ux, Initial residual = 0.334748244, Final residual = 0.0071619431, No Iterations 1
DILUPBiCG:  Solving for Uy, Initial residual = 0.30135671, Final residual = 0.00506304257, No Iterations 1
DILUPBiCG:  Solving for Uz, Initial residual = 0.2682863, Final residual = 0.00505290192, No Iterations 1
DILUPBiCG:  Solving for h, Initial residual = 0.496057977, Final residual = 0.00353444773, No Iterations 1
GAMG:  Solving for p_rgh, Initial residual = 0.618487588, Final residual = 0.00567135862, No Iterations 4
time step continuity errors : sum local = 0.0282616101, global = -6.43745604e-05, cumulative = -0.000301594303
rho max/min : 1.20847018 1.15162928
smoothSolver:  Solving for omega, Initial residual = 0.0193062971, Final residual = 0.000933971725, No Iterations 2
bounding omega, min: -38.9173265 max: 505273.528 average: 2031.23176
smoothSolver:  Solving for k, Initial residual = 0.696735818, Final residual = 0.0493848121, No Iterations 2
ExecutionTime = 31.09 s  ClockTime = 32 s

wallHeatFlux wallHeatFlux output:

Wall heat fluxes [W]
room_SIDE2
    convective: 0
    radiative:  -0
    total:      0
    Temperature : min = 293.343554, max = 293.662625, average = 293.549951
room_FLOOR
    convective: 0
    radiative:  -0
    total:      0
    Temperature : min = 293.319537, max = 295.476993, average = 293.562195
room_CEILING
    convective: 0
    radiative:  -0
    total:      0
    Temperature : min = 293.549996, max = 293.737939, average = 293.551418
room_BACK
    convective: 0
    radiative:  -0
    total:      0
    Temperature : min = 293.537392, max = 293.551391, average = 293.549915
room_SIDE1
    convective: 0
    radiative:  -0
    total:      0
    Temperature : min = 293.327839, max = 293.707468, average = 293.549955
manikin
    convective: 1534.94967
    radiative:  -0
    total:      1534.94967
    Temperature : min = 307.15, max = 307.15, average = 307.15

yPlusRAS yplusRAS output:
    patch room_SIDE2 y+ : min = 0.387701403, max = 5.13863095, average = 3.63186709
    patch room_FLOOR y+ : min = 0.0902837, max = 5.286003, average = 2.35290577
    patch room_CEILING y+ : min = 0.455058098, max = 5.22303027, average = 3.59381723
    patch room_BACK y+ : min = 0.631381261, max = 6.61722821, average = 1.53845887
    patch room_SIDE1 y+ : min = 0.387688794, max = 5.16773678, average = 3.63454479
    patch manikin y+ : min = 0.0309248597, max = 2.92774488, average = 0.216620433

yPlusRASLowRe yplusRASLowRe output:
room_SIDE2
    y+ : min = 0.21818659, max = 11.9368954, average = 8.30213299
    y : min = 0.000544684214, max = 0.00250000001, average = 0.00234603179
room_FLOOR
    y+ : min = 0.201503573, max = 11.9812735, average = 5.49234729
    y : min = 0.000139430812, max = 0.00249999971, average = 0.00161917022
room_CEILING
    y+ : min = 0.523031214, max = 12.2519084, average = 8.05104826
    y : min = 0.000647142072, max = 0.00249999973, average = 0.00231379284
room_BACK
    y+ : min = 0.342576275, max = 60.8746996, average = 4.87905185
    y : min = 0.000872666798, max = 0.00549005797, average = 0.00123342378
room_SIDE1
    y+ : min = 0.22587161, max = 12.1566543, average = 8.3161191
    y : min = 0.000544684643, max = 0.0025, average = 0.00234602486
manikin
    y+ : min = 0.0381153647, max = 10.6580745, average = 0.818780558
    y : min = 4.97449872e-05, max = 0.00255854003, average = 0.000292020944

forceCoeffs forceCoeffs1 output:
    Cm    = -4507.3647
    Cd    = -77.3790881
    Cl    = -8678.74463
    Cl(f) = -8846.73702
    Cl(r) = 167.992384

Time = 3

DILUPBiCG:  Solving for Ux, Initial residual = 0.146494378, Final residual = 0.00283084588, No Iterations 1
DILUPBiCG:  Solving for Uy, Initial residual = 0.101371627, Final residual = 0.00188942303, No Iterations 1
DILUPBiCG:  Solving for Uz, Initial residual = 0.215257404, Final residual = 0.00389341878, No Iterations 1
DILUPBiCG:  Solving for h, Initial residual = 0.0140402393, Final residual = 0.000177762741, No Iterations 1
GAMG:  Solving for p_rgh, Initial residual = 0.440766735, Final residual = 0.00299831415, No Iterations 6
time step continuity errors : sum local = 0.00806080878, global = 0.000250984499, cumulative = -5.06098045e-05
rho max/min : 1.20720235 1.15063939
smoothSolver:  Solving for omega, Initial residual = 0.00157194934, Final residual = 7.12303197e-05, No Iterations 2
smoothSolver:  Solving for k, Initial residual = 0.208604597, Final residual = 0.0189619942, No Iterations 2
ExecutionTime = 44.15 s  ClockTime = 45 s

wallHeatFlux wallHeatFlux output:

Wall heat fluxes [W]
room_SIDE2
    convective: 0
    radiative:  -0
    total:      0
    Temperature : min = 293.199883, max = 293.731315, average = 293.549912
room_FLOOR
    convective: 0
    radiative:  -0
    total:      0
    Temperature : min = 293.189429, max = 296.559669, average = 293.569252
room_CEILING
    convective: 0
    radiative:  -0
    total:      0
    Temperature : min = 293.549997, max = 293.795746, average = 293.552316
room_BACK
    convective: 0
    radiative:  -0
    total:      0
    Temperature : min = 293.517602, max = 293.550937, average = 293.549786
room_SIDE1
    convective: 0
    radiative:  -0
    total:      0
    Temperature : min = 293.19959, max = 293.767857, average = 293.549908
manikin
    convective: 1268.73919
    radiative:  -0
    total:      1268.73919
    Temperature : min = 307.15, max = 307.15, average = 307.15

yPlusRAS yplusRAS output:
    patch room_SIDE2 y+ : min = 0.257383586, max = 5.69265657, average = 4.16202006
    patch room_FLOOR y+ : min = 0.0642609813, max = 5.72631238, average = 2.42392238
    patch room_CEILING y+ : min = 0.27419792, max = 5.61225689, average = 3.71877655
    patch room_BACK y+ : min = 0.413665937, max = 7.47307259, average = 1.6892092
    patch room_SIDE1 y+ : min = 0.257224432, max = 5.67687509, average = 4.17045904
    patch manikin y+ : min = 0.0198156796, max = 3.04810368, average = 0.160214219

yPlusRASLowRe yplusRASLowRe output:
room_SIDE2
    y+ : min = 0.761966382, max = 10.4368312, average = 7.82946068
    y : min = 0.000544684214, max = 0.00250000001, average = 0.00234603179
room_FLOOR
    y+ : min = 0.249063973, max = 10.2697399, average = 4.54899241
    y : min = 0.000139430812, max = 0.00249999971, average = 0.00161917022
room_CEILING
    y+ : min = 0.354358953, max = 10.9173569, average = 6.46766047
    y : min = 0.000647142072, max = 0.00249999973, average = 0.00231379284
room_BACK
    y+ : min = 0.468358224, max = 60.1347146, average = 4.71506104
    y : min = 0.000872666798, max = 0.00549005797, average = 0.00123342378
room_SIDE1
    y+ : min = 0.753911517, max = 10.436305, average = 7.85052062
    y : min = 0.000544684643, max = 0.0025, average = 0.00234602486
manikin
    y+ : min = 0.0530226739, max = 10.0204476, average = 0.806340752
    y : min = 4.97449872e-05, max = 0.00255854003, average = 0.000292020944

forceCoeffs forceCoeffs1 output:
    Cm    = -4487.31902
    Cd    = -123.429304
    Cl    = -8639.7825
    Cl(f) = -8807.21028
    Cl(r) = 167.427772

Time = 4

DILUPBiCG:  Solving for Ux, Initial residual = 0.0849567896, Final residual = 0.00192679714, No Iterations 1
DILUPBiCG:  Solving for Uy, Initial residual = 0.0853047895, Final residual = 0.00159468771, No Iterations 1
DILUPBiCG:  Solving for Uz, Initial residual = 0.116404506, Final residual = 0.00265980121, No Iterations 1
DILUPBiCG:  Solving for h, Initial residual = 0.00681110917, Final residual = 9.60270258e-05, No Iterations 1
GAMG:  Solving for p_rgh, Initial residual = 0.505597508, Final residual = 0.00453264408, No Iterations 5
time step continuity errors : sum local = 0.00716747599, global = 0.000114719479, cumulative = 6.41096746e-05
rho max/min : 1.20310365 1.14685801
smoothSolver:  Solving for omega, Initial residual = 0.000521310592, Final residual = 3.7138561e-05, No Iterations 2
smoothSolver:  Solving for k, Initial residual = 0.131155452, Final residual = 0.00515502265, No Iterations 3
ExecutionTime = 56.84 s  ClockTime = 58 s

wallHeatFlux wallHeatFlux output:

Wall heat fluxes [W]
room_SIDE2
    convective: 0
    radiative:  -0
    total:      0
    Temperature : min = 293.105168, max = 293.775467, average = 293.549832
room_FLOOR
    convective: 0
    radiative:  -0
    total:      0
    Temperature : min = 293.094956, max = 297.666909, average = 293.574853
room_CEILING
    convective: 0
    radiative:  -0
    total:      0
    Temperature : min = 293.549998, max = 293.835717, average = 293.552801
room_BACK
    convective: 0
    radiative:  -0
    total:      0
    Temperature : min = 293.515012, max = 293.550398, average = 293.549757
room_SIDE1
    convective: 0
    radiative:  -0
    total:      0
    Temperature : min = 293.103462, max = 293.800718, average = 293.549818
manikin
    convective: 1069.18725
    radiative:  -0
    total:      1069.18725
    Temperature : min = 307.15, max = 307.15, average = 307.15

yPlusRAS yplusRAS output:
    patch room_SIDE2 y+ : min = 0.192729635, max = 6.26157105, average = 4.40057623
    patch room_FLOOR y+ : min = 0.0496717784, max = 6.17724522, average = 2.32620268
    patch room_CEILING y+ : min = 0.164506558, max = 5.75957491, average = 3.55824268
    patch room_BACK y+ : min = 0.29046716, max = 9.66724351, average = 1.77596094
    patch room_SIDE1 y+ : min = 0.192643025, max = 6.25268955, average = 4.41440625
    patch manikin y+ : min = 0.0146963899, max = 3.10694639, average = 0.128886696

yPlusRASLowRe yplusRASLowRe output:
room_SIDE2
    y+ : min = 0.591973785, max = 9.9517984, average = 7.42116213
    y : min = 0.000544684214, max = 0.00250000001, average = 0.00234603179
room_FLOOR
    y+ : min = 0.076573565, max = 9.71141751, average = 4.03960217
    y : min = 0.000139430812, max = 0.00249999971, average = 0.00161917022
room_CEILING
    y+ : min = 0.297274296, max = 9.79574918, average = 5.6706622
    y : min = 0.000647142072, max = 0.00249999973, average = 0.00231379284
room_BACK
    y+ : min = 0.416679219, max = 55.6073121, average = 4.4191173
    y : min = 0.000872666798, max = 0.00549005797, average = 0.00123342378
room_SIDE1
    y+ : min = 0.601031795, max = 9.96541358, average = 7.44464754
    y : min = 0.000544684643, max = 0.0025, average = 0.00234602486
manikin
    y+ : min = 0.0682761635, max = 9.71371421, average = 0.839786216
    y : min = 4.97449872e-05, max = 0.00255854003, average = 0.000292020944

forceCoeffs forceCoeffs1 output:
    Cm    = -4485.94235
    Cd    = -115.462953
    Cl    = -8637.3524
    Cl(f) = -8804.61855
    Cl(r) = 167.266147

Time = 5

DILUPBiCG:  Solving for Ux, Initial residual = 0.0559534644, Final residual = 0.00204261235, No Iterations 1
DILUPBiCG:  Solving for Uy, Initial residual = 0.0691495806, Final residual = 0.00121352952, No Iterations 1
DILUPBiCG:  Solving for Uz, Initial residual = 0.0651480731, Final residual = 0.00220406974, No Iterations 1
DILUPBiCG:  Solving for h, Initial residual = 0.00447127444, Final residual = 5.24523336e-05, No Iterations 1
GAMG:  Solving for p_rgh, Initial residual = 0.348754832, Final residual = 0.00217212406, No Iterations 5
time step continuity errors : sum local = 0.00283856663, global = -0.000119150594, cumulative = -5.50409193e-05
rho max/min : 1.20225232 1.14603364
smoothSolver:  Solving for omega, Initial residual = 0.000358819325, Final residual = 3.40181977e-05, No Iterations 2
smoothSolver:  Solving for k, Initial residual = 0.101586627, Final residual = 0.00425732138, No Iterations 3
ExecutionTime = 69.49 s  ClockTime = 70 s

wallHeatFlux wallHeatFlux output:

Wall heat fluxes [W]
room_SIDE2
    convective: 0
    radiative:  -0
    total:      0
    Temperature : min = 293.03609, max = 293.813701, average = 293.549761
room_FLOOR
    convective: 0
    radiative:  -0
    total:      0
    Temperature : min = 293.021497, max = 298.085975, average = 293.578418
room_CEILING
    convective: 0
    radiative:  -0
    total:      0
    Temperature : min = 293.549995, max = 293.86356, average = 293.553748
room_BACK
    convective: 0
    radiative:  -0
    total:      0
    Temperature : min = 293.520313, max = 293.550207, average = 293.549769
room_SIDE1
    convective: 0
    radiative:  -0
    total:      0
    Temperature : min = 293.033959, max = 293.829105, average = 293.549739
manikin
    convective: 918.927363
    radiative:  -0
    total:      918.927363
    Temperature : min = 307.15, max = 307.15, average = 307.15

yPlusRAS yplusRAS output:
    patch room_SIDE2 y+ : min = 0.132019929, max = 6.62666782, average = 4.53949154
    patch room_FLOOR y+ : min = 0.0349650227, max = 6.47485083, average = 2.2646478
    patch room_CEILING y+ : min = 0.105079152, max = 5.73665447, average = 3.47041208
    patch room_BACK y+ : min = 0.181158362, max = 11.968564, average = 1.83643299
    patch room_SIDE1 y+ : min = 0.132302549, max = 6.61835483, average = 4.55709323
    patch manikin y+ : min = 0.00959870252, max = 3.18412412, average = 0.107466044

yPlusRASLowRe yplusRASLowRe output:
room_SIDE2
    y+ : min = 0.577345713, max = 9.85416359, average = 7.29796531
    y : min = 0.000544684214, max = 0.00250000001, average = 0.00234603179
room_FLOOR
    y+ : min = 0.0876585784, max = 9.62817972, average = 4.00614168
    y : min = 0.000139430812, max = 0.00249999971, average = 0.00161917022
room_CEILING
    y+ : min = 0.308552103, max = 9.072625, average = 5.64411982
    y : min = 0.000647142072, max = 0.00249999973, average = 0.00231379284
room_BACK
    y+ : min = 0.301229686, max = 51.629561, average = 4.30645094
    y : min = 0.000872666798, max = 0.00549005797, average = 0.00123342378
room_SIDE1
    y+ : min = 0.577218066, max = 9.86707582, average = 7.32180954
    y : min = 0.000544684643, max = 0.0025, average = 0.00234602486
manikin
    y+ : min = 0.067074243, max = 9.59750691, average = 0.79421765
    y : min = 4.97449872e-05, max = 0.00255854003, average = 0.000292020944

forceCoeffs forceCoeffs1 output:
    Cm    = -4491.58678
    Cd    = -98.3214762
    Cl    = -8648.43152
    Cl(f) = -8815.80254
    Cl(r) = 167.371023

Time = 6

DILUPBiCG:  Solving for Ux, Initial residual = 0.0322564902, Final residual = 0.000575643195, No Iterations 1
DILUPBiCG:  Solving for Uy, Initial residual = 0.0210396968, Final residual = 0.000705180972, No Iterations 1
DILUPBiCG:  Solving for Uz, Initial residual = 0.0544516035, Final residual = 0.0050675364, No Iterations 1
DILUPBiCG:  Solving for h, Initial residual = 0.00321535042, Final residual = 4.21911715e-05, No Iterations 1
GAMG:  Solving for p_rgh, Initial residual = 0.304578036, Final residual = 0.00247181686, No Iterations 5
time step continuity errors : sum local = 0.00260927052, global = -5.50417671e-05, cumulative = -0.000110082686
rho max/min : 1.20314361 1.14684331
smoothSolver:  Solving for omega, Initial residual = 0.000352468275, Final residual = 1.31208925e-05, No Iterations 3
smoothSolver:  Solving for k, Initial residual = 0.0855286493, Final residual = 0.00370303414, No Iterations 3
ExecutionTime = 82.16 s  ClockTime = 83 s

wallHeatFlux wallHeatFlux output:

Wall heat fluxes [W]
room_SIDE2
    convective: 0
    radiative:  -0
    total:      0
    Temperature : min = 292.981988, max = 293.843818, average = 293.549689
room_FLOOR
    convective: 0
    radiative:  -0
    total:      0
    Temperature : min = 292.967912, max = 298.195537, average = 293.581204
room_CEILING
    convective: 0
    radiative:  -0
    total:      0
    Temperature : min = 293.549996, max = 293.883531, average = 293.554844
room_BACK
    convective: 0
    radiative:  -0
    total:      0
    Temperature : min = 293.523789, max = 293.550081, average = 293.549773
room_SIDE1
    convective: 0
    radiative:  -0
    total:      0
    Temperature : min = 292.98006, max = 293.855428, average = 293.549659
manikin
    convective: 802.845007
    radiative:  -0
    total:      802.845007
    Temperature : min = 307.15, max = 307.15, average = 307.15

yPlusRAS yplusRAS output:
    patch room_SIDE2 y+ : min = 0.0864311728, max = 6.9032845, average = 4.65388309
    patch room_FLOOR y+ : min = 0.0251547317, max = 6.72398729, average = 2.26692135
    patch room_CEILING y+ : min = 0.0776039421, max = 5.60244241, average = 3.48994721
    patch room_BACK y+ : min = 0.114393851, max = 14.2982692, average = 1.89384935
    patch room_SIDE1 y+ : min = 0.0862187202, max = 6.89625959, average = 4.67380486
    patch manikin y+ : min = 0.00691184718, max = 3.24766921, average = 0.0880502904

yPlusRASLowRe yplusRASLowRe output:
room_SIDE2
    y+ : min = 0.38156053, max = 9.93119143, average = 7.32329109
    y : min = 0.000544684214, max = 0.00250000001, average = 0.00234603179
room_FLOOR
    y+ : min = 0.149836045, max = 9.72111957, average = 4.15245578
    y : min = 0.000139430812, max = 0.00249999971, average = 0.00161917022
room_CEILING
    y+ : min = 0.101834983, max = 8.7103369, average = 5.89022075
    y : min = 0.000647142072, max = 0.00249999973, average = 0.00231379284
room_BACK
    y+ : min = 0.385463608, max = 49.9003149, average = 4.31994853
    y : min = 0.000872666798, max = 0.00549005797, average = 0.00123342378
room_SIDE1
    y+ : min = 0.379959058, max = 9.94193988, average = 7.34611349
    y : min = 0.000544684643, max = 0.0025, average = 0.00234602486
manikin
    y+ : min = 0.0630134392, max = 9.58224425, average = 0.683161271
    y : min = 4.97449872e-05, max = 0.00255854003, average = 0.000292020944

forceCoeffs forceCoeffs1 output:
    Cm    = -4494.00933
    Cd    = -93.5974892
    Cl    = -8653.09915
    Cl(f) = -8820.55891
    Cl(r) = 167.459754

Time = 7

DILUPBiCG:  Solving for Ux, Initial residual = 0.0343408665, Final residual = 0.000694804802, No Iterations 1
DILUPBiCG:  Solving for Uy, Initial residual = 0.0229276753, Final residual = 0.00186290978, No Iterations 1
DILUPBiCG:  Solving for Uz, Initial residual = 0.0381147232, Final residual = 0.000909605745, No Iterations 1
DILUPBiCG:  Solving for h, Initial residual = 0.00246773783, Final residual = 3.37438654e-05, No Iterations 1
GAMG:  Solving for p_rgh, Initial residual = 0.201643135, Final residual = 0.00130753041, No Iterations 5
time step continuity errors : sum local = 0.00129882016, global = 4.61123653e-06, cumulative = -0.00010547145
rho max/min : 1.20369651 1.14735835
smoothSolver:  Solving for omega, Initial residual = 0.000330610752, Final residual = 1.27978754e-05, No Iterations 3
smoothSolver:  Solving for k, Initial residual = 0.0726214887, Final residual = 0.00319728728, No Iterations 3
ExecutionTime = 94.93 s  ClockTime = 96 s

wallHeatFlux wallHeatFlux output:

Wall heat fluxes [W]
room_SIDE2
    convective: 0
    radiative:  -0
    total:      0
    Temperature : min = 292.940645, max = 293.866772, average = 293.549613
room_FLOOR
    convective: 0
    radiative:  -0
    total:      0
    Temperature : min = 292.9289, max = 298.251104, average = 293.583858
room_CEILING
    convective: 0
    radiative:  -0
    total:      0
    Temperature : min = 293.549996, max = 293.8978, average = 293.556
room_BACK
    convective: 0
    radiative:  -0
    total:      0
    Temperature : min = 293.524807, max = 293.55, average = 293.549765
room_SIDE1
    convective: 0
    radiative:  -0
    total:      0
    Temperature : min = 292.939078, max = 293.875959, average = 293.549578
manikin
    convective: 710.860079
    radiative:  -0
    total:      710.860079
    Temperature : min = 307.15, max = 307.15, average = 307.15

yPlusRAS yplusRAS output:
    patch room_SIDE2 y+ : min = 0.0569012997, max = 7.09881911, average = 4.73347593
    patch room_FLOOR y+ : min = 0.0187856915, max = 6.90000562, average = 2.28693936
    patch room_CEILING y+ : min = 0.0486442804, max = 5.69132959, average = 3.53222679
    patch room_BACK y+ : min = 0.0777329425, max = 16.2905092, average = 1.94180114
    patch room_SIDE1 y+ : min = 0.0564471559, max = 7.0905444, average = 4.75460947
    patch manikin y+ : min = 0.00614036956, max = 3.31735307, average = 0.0729970274

yPlusRASLowRe yplusRASLowRe output:
room_SIDE2
    y+ : min = 0.376199341, max = 9.96159722, average = 7.32794383
    y : min = 0.000544684214, max = 0.00250000001, average = 0.00234603179
room_FLOOR
    y+ : min = 0.145040711, max = 9.75923667, average = 4.22755715
    y : min = 0.000139430812, max = 0.00249999971, average = 0.00161917022
room_CEILING
    y+ : min = 0.116385096, max = 8.39021684, average = 5.9981754
    y : min = 0.000647142072, max = 0.00249999973, average = 0.00231379284
room_BACK
    y+ : min = 0.232442554, max = 49.3060834, average = 4.3393983
    y : min = 0.000872666798, max = 0.00549005797, average = 0.00123342378
room_SIDE1
    y+ : min = 0.370620136, max = 9.96833282, average = 7.34971152
    y : min = 0.000544684643, max = 0.0025, average = 0.00234602486
manikin
    y+ : min = 0.0542461566, max = 9.53485409, average = 0.611348269
    y : min = 4.97449872e-05, max = 0.00255854003, average = 0.000292020944

forceCoeffs forceCoeffs1 output:
    Cm    = -4493.08226
    Cd    = -97.1864603
    Cl    = -8651.24607
    Cl(f) = -8818.70529
    Cl(r) = 167.459226

Time = 8

DILUPBiCG:  Solving for Ux, Initial residual = 0.0272987215, Final residual = 0.00256392238, No Iterations 1
DILUPBiCG:  Solving for Uy, Initial residual = 0.0106864446, Final residual = 0.000228647998, No Iterations 1
DILUPBiCG:  Solving for Uz, Initial residual = 0.0314929279, Final residual = 0.00213178786, No Iterations 1
DILUPBiCG:  Solving for h, Initial residual = 0.00199350199, Final residual = 2.2727973e-05, No Iterations 1
GAMG:  Solving for p_rgh, Initial residual = 0.126239922, Final residual = 0.000650158828, No Iterations 5
time step continuity errors : sum local = 0.00057907189, global = 2.09100811e-05, cumulative = -8.45613687e-05
rho max/min : 1.20362437 1.14729745
smoothSolver:  Solving for omega, Initial residual = 0.00031158653, Final residual = 1.16532407e-05, No Iterations 3
smoothSolver:  Solving for k, Initial residual = 0.0615827291, Final residual = 0.00276238619, No Iterations 3
ExecutionTime = 107.48 s  ClockTime = 108 s

wallHeatFlux wallHeatFlux output:

Wall heat fluxes [W]
room_SIDE2
    convective: 0
    radiative:  -0
    total:      0
    Temperature : min = 292.91005, max = 293.883736, average = 293.549536
room_FLOOR
    convective: 0
    radiative:  -0
    total:      0
    Temperature : min = 292.900714, max = 298.294409, average = 293.586586
room_CEILING
    convective: 0
    radiative:  -0
    total:      0
    Temperature : min = 293.549995, max = 293.907859, average = 293.557168
room_BACK
    convective: 0
    radiative:  -0
    total:      0
    Temperature : min = 293.525184, max = 293.55, average = 293.549752
room_SIDE1
    convective: 0
    radiative:  -0
    total:      0
    Temperature : min = 292.908819, max = 293.891008, average = 293.549496
manikin
    convective: 638.041293
    radiative:  -0
    total:      638.041293
    Temperature : min = 307.15, max = 307.15, average = 307.15

yPlusRAS yplusRAS output:
    patch room_SIDE2 y+ : min = 0.0416730679, max = 7.21801574, average = 4.76855291
    patch room_FLOOR y+ : min = 0.0141257146, max = 6.99840693, average = 2.28996997
    patch room_CEILING y+ : min = 0.0294370214, max = 5.72856895, average = 3.54166605
    patch room_BACK y+ : min = 0.0567768347, max = 17.8047408, average = 1.97156007
    patch room_SIDE1 y+ : min = 0.0411806904, max = 7.20961343, average = 4.79043898
    patch manikin y+ : min = 0.00408881857, max = 3.38528669, average = 0.0615112055

yPlusRASLowRe yplusRASLowRe output:
room_SIDE2
    y+ : min = 0.419011283, max = 9.91775008, average = 7.28165516
    y : min = 0.000544684214, max = 0.00250000001, average = 0.00234603179
room_FLOOR
    y+ : min = 0.144762084, max = 9.7235362, average = 4.19671089
    y : min = 0.000139430812, max = 0.00249999971, average = 0.00161917022
room_CEILING
    y+ : min = 0.0958560073, max = 8.32266605, average = 5.94670175
    y : min = 0.000647142072, max = 0.00249999973, average = 0.00231379284
room_BACK
    y+ : min = 0.246640986, max = 48.6960657, average = 4.32429627
    y : min = 0.000872666798, max = 0.00549005797, average = 0.00123342378
room_SIDE1
    y+ : min = 0.415251292, max = 9.92345485, average = 7.30347489
    y : min = 0.000544684643, max = 0.0025, average = 0.00234602486
manikin
    y+ : min = 0.0325526822, max = 9.43789828, average = 0.556515416
    y : min = 4.97449872e-05, max = 0.00255854003, average = 0.000292020944

forceCoeffs forceCoeffs1 output:
    Cm    = -4492.07129
    Cd    = -100.050164
    Cl    = -8649.2739
    Cl(f) = -8816.70824
    Cl(r) = 167.434339

Time = 9

DILUPBiCG:  Solving for Ux, Initial residual = 0.0224495374, Final residual = 0.000384393027, No Iterations 1
DILUPBiCG:  Solving for Uy, Initial residual = 0.0100001825, Final residual = 0.000184970932, No Iterations 1
DILUPBiCG:  Solving for Uz, Initial residual = 0.0258482066, Final residual = 0.000458928238, No Iterations 1
DILUPBiCG:  Solving for h, Initial residual = 0.00167587294, Final residual = 1.80072281e-05, No Iterations 1
GAMG:  Solving for p_rgh, Initial residual = 0.108021132, Final residual = 0.000740497543, No Iterations 5
time step continuity errors : sum local = 0.000593944111, global = 1.16023528e-06, cumulative = -8.34011334e-05
rho max/min : 1.20344966 1.14713746
smoothSolver:  Solving for omega, Initial residual = 0.000276741563, Final residual = 1.01790768e-05, No Iterations 3
smoothSolver:  Solving for k, Initial residual = 0.0538481146, Final residual = 0.00244456471, No Iterations 3
ExecutionTime = 120.12 s  ClockTime = 121 s

wallHeatFlux wallHeatFlux output:

Wall heat fluxes [W]
room_SIDE2
    convective: 0
    radiative:  -0
    total:      0
    Temperature : min = 292.887619, max = 293.896327, average = 293.54946
room_FLOOR
    convective: 0
    radiative:  -0
    total:      0
    Temperature : min = 292.88027, max = 298.327758, average = 293.58936
room_CEILING
    convective: 0
    radiative:  -0
    total:      0
    Temperature : min = 293.549993, max = 293.914974, average = 293.558351
room_BACK
    convective: 0
    radiative:  -0
    total:      0
    Temperature : min = 293.525697, max = 293.55, average = 293.549741
room_SIDE1
    convective: 0
    radiative:  -0
    total:      0
    Temperature : min = 292.886676, max = 293.901979, average = 293.549418
manikin
    convective: 579.19884
    radiative:  -0
    total:      579.19884
    Temperature : min = 307.15, max = 307.15, average = 307.15

yPlusRAS yplusRAS output:
    patch room_SIDE2 y+ : min = 0.032211244, max = 7.27234471, average = 4.7710516
    patch room_FLOOR y+ : min = 0.0113631876, max = 7.04693771, average = 2.27992828
    patch room_CEILING y+ : min = 0.0184011024, max = 5.72537171, average = 3.52813845
    patch room_BACK y+ : min = 0.0434405676, max = 18.7894253, average = 1.98558936
    patch room_SIDE1 y+ : min = 0.0317689121, max = 7.26390438, average = 4.79352222
    patch manikin y+ : min = 0.00289237017, max = 3.42232318, average = 0.0532188661

yPlusRASLowRe yplusRASLowRe output:
room_SIDE2
    y+ : min = 0.407356439, max = 9.85684114, average = 7.22199014
    y : min = 0.000544684214, max = 0.00250000001, average = 0.00234603179
room_FLOOR
    y+ : min = 0.201052643, max = 9.67671942, average = 4.15769904
    y : min = 0.000139430812, max = 0.00249999971, average = 0.00161917022
room_CEILING
    y+ : min = 0.124764511, max = 8.24999007, average = 5.88792762
    y : min = 0.000647142072, max = 0.00249999973, average = 0.00231379284
room_BACK
    y+ : min = 0.213063206, max = 48.0301151, average = 4.29388757
    y : min = 0.000872666798, max = 0.00549005797, average = 0.00123342378
room_SIDE1
    y+ : min = 0.404717517, max = 9.86262706, average = 7.24420781
    y : min = 0.000544684643, max = 0.0025, average = 0.00234602486
manikin
    y+ : min = 0.0241004571, max = 9.32563673, average = 0.531465774
    y : min = 4.97449872e-05, max = 0.00255854003, average = 0.000292020944

forceCoeffs forceCoeffs1 output:
    Cm    = -4492.04915
    Cd    = -100.101069
    Cl    = -8649.24647
    Cl(f) = -8816.67239
    Cl(r) = 167.425913

Time = 10

DILUPBiCG:  Solving for Ux, Initial residual = 0.0198693417, Final residual = 0.00033211001, No Iterations 1
DILUPBiCG:  Solving for Uy, Initial residual = 0.00828737924, Final residual = 0.000147737031, No Iterations 1
DILUPBiCG:  Solving for Uz, Initial residual = 0.0206358479, Final residual = 0.000348874414, No Iterations 1
DILUPBiCG:  Solving for h, Initial residual = 0.00144698569, Final residual = 1.51370024e-05, No Iterations 1
GAMG:  Solving for p_rgh, Initial residual = 0.0790098062, Final residual = 0.000594051521, No Iterations 4
time step continuity errors : sum local = 0.000447877098, global = -2.27772024e-05, cumulative = -0.000106178336
rho max/min : 1.20342208 1.1471115
smoothSolver:  Solving for omega, Initial residual = 0.000239629922, Final residual = 8.88160481e-06, No Iterations 3
smoothSolver:  Solving for k, Initial residual = 0.048661376, Final residual = 0.00220530987, No Iterations 3
ExecutionTime = 132.11 s  ClockTime = 133 s

wallHeatFlux wallHeatFlux output:

Wall heat fluxes [W]
room_SIDE2
    convective: 0
    radiative:  -0
    total:      0
    Temperature : min = 292.871111, max = 293.90572, average = 293.549386
room_FLOOR
    convective: 0
    radiative:  -0
    total:      0
    Temperature : min = 292.86538, max = 298.355197, average = 293.592173
room_CEILING
    convective: 0
    radiative:  -0
    total:      0
    Temperature : min = 293.549992, max = 293.92001, average = 293.559547
room_BACK
    convective: 0
    radiative:  -0
    total:      0
    Temperature : min = 293.526133, max = 293.55, average = 293.54973
room_SIDE1
    convective: 0
    radiative:  -0
    total:      0
    Temperature : min = 292.870402, max = 293.909981, average = 293.549343
manikin
    convective: 530.973097
    radiative:  -0
    total:      530.973097
    Temperature : min = 307.15, max = 307.15, average = 307.15

yPlusRAS yplusRAS output:
    patch room_SIDE2 y+ : min = 0.0250157445, max = 7.29046818, average = 4.756911
    patch room_FLOOR y+ : min = 0.00999041111, max = 7.06740091, average = 2.26868473
    patch room_CEILING y+ : min = 0.0139939011, max = 5.70656855, average = 3.51224296
    patch room_BACK y+ : min = 0.0307584182, max = 19.3676214, average = 1.99010147
    patch room_SIDE1 y+ : min = 0.0245908729, max = 7.28657085, average = 4.77978272
    patch manikin y+ : min = 0.0020726347, max = 3.42992931, average = 0.0473504574

yPlusRASLowRe yplusRASLowRe output:
room_SIDE2
    y+ : min = 0.363010978, max = 9.81425445, average = 7.17255565
    y : min = 0.000544684214, max = 0.00250000001, average = 0.00234603179
room_FLOOR
    y+ : min = 0.200957894, max = 9.64945624, average = 4.14575341
    y : min = 0.000139430812, max = 0.00249999971, average = 0.00161917022
room_CEILING
    y+ : min = 0.0536021789, max = 8.19947851, average = 5.87096297
    y : min = 0.000647142072, max = 0.00249999973, average = 0.00231379284
room_BACK
    y+ : min = 0.185616252, max = 47.5754472, average = 4.26608206
    y : min = 0.000872666798, max = 0.00549005797, average = 0.00123342378
room_SIDE1
    y+ : min = 0.359177409, max = 9.82337066, average = 7.19487689
    y : min = 0.000544684643, max = 0.0025, average = 0.00234602486
manikin
    y+ : min = 0.0343014765, max = 9.21160719, average = 0.517107144
    y : min = 4.97449872e-05, max = 0.00255854003, average = 0.000292020944

forceCoeffs forceCoeffs1 output:
    Cm    = -4492.38048
    Cd    = -99.2202784
    Cl    = -8649.89803
    Cl(f) = -8817.3295
    Cl(r) = 167.43147

Time = 11

DILUPBiCG:  Solving for Ux, Initial residual = 0.0183379176, Final residual = 0.000294260304, No Iterations 1
DILUPBiCG:  Solving for Uy, Initial residual = 0.00677392732, Final residual = 0.000113364434, No Iterations 1
DILUPBiCG:  Solving for Uz, Initial residual = 0.0198584576, Final residual = 0.000323740855, No Iterations 1
DILUPBiCG:  Solving for h, Initial residual = 0.0012727926, Final residual = 1.30604922e-05, No Iterations 1
GAMG:  Solving for p_rgh, Initial residual = 0.0635271481, Final residual = 0.000557941594, No Iterations 3
time step continuity errors : sum local = 0.000408101268, global = -3.87174598e-05, cumulative = -0.000144895796
rho max/min : 1.20347092 1.1471565
smoothSolver:  Solving for omega, Initial residual = 0.000211090188, Final residual = 7.76720056e-06, No Iterations 3
smoothSolver:  Solving for k, Initial residual = 0.0449354517, Final residual = 0.00200067862, No Iterations 3
ExecutionTime = 143.87 s  ClockTime = 145 s

wallHeatFlux wallHeatFlux output:

Wall heat fluxes [W]
room_SIDE2
    convective: 0
    radiative:  -0
    total:      0
    Temperature : min = 292.858908, max = 293.912728, average = 293.549312
room_FLOOR
    convective: 0
    radiative:  -0
    total:      0
    Temperature : min = 292.854495, max = 298.38167, average = 293.59504
room_CEILING
    convective: 0
    radiative:  -0
    total:      0
    Temperature : min = 293.549991, max = 293.923577, average = 293.560756
room_BACK
    convective: 0
    radiative:  -0
    total:      0
    Temperature : min = 293.526254, max = 293.55, average = 293.549718
room_SIDE1
    convective: 0
    radiative:  -0
    total:      0
    Temperature : min = 292.858378, max = 293.915832, average = 293.549269
manikin
    convective: 490.951624
    radiative:  -0
    total:      490.951624
    Temperature : min = 307.15, max = 307.15, average = 307.15

yPlusRAS yplusRAS output:
    patch room_SIDE2 y+ : min = 0.0195707617, max = 7.2910231, average = 4.73419886
    patch room_FLOOR y+ : min = 0.00941627797, max = 7.07267709, average = 2.25940203
    patch room_CEILING y+ : min = 0.0122148143, max = 5.67893615, average = 3.49862706
    patch room_BACK y+ : min = 0.0214719791, max = 19.6685661, average = 1.9890018
    patch room_SIDE1 y+ : min = 0.0191221747, max = 7.29204928, average = 4.75727531
    patch manikin y+ : min = 0.00153539348, max = 3.41349002, average = 0.0431835378

yPlusRASLowRe yplusRASLowRe output:
room_SIDE2
    y+ : min = 0.309169325, max = 9.78366846, average = 7.13038043
    y : min = 0.000544684214, max = 0.00250000001, average = 0.00234603179
room_FLOOR
    y+ : min = 0.231167612, max = 9.63415771, average = 4.14384728
    y : min = 0.000139430812, max = 0.00249999971, average = 0.00161917022
room_CEILING
    y+ : min = 0.177407831, max = 8.15806868, average = 5.867398
    y : min = 0.000647142072, max = 0.00249999973, average = 0.00231379284
room_BACK
    y+ : min = 0.262336163, max = 47.3786475, average = 4.24179818
    y : min = 0.000872666798, max = 0.00549005797, average = 0.00123342378
room_SIDE1
    y+ : min = 0.31948859, max = 9.79208377, average = 7.15250928
    y : min = 0.000544684643, max = 0.0025, average = 0.00234602486
manikin
    y+ : min = 0.0354611909, max = 9.09012297, average = 0.506607981
    y : min = 4.97449872e-05, max = 0.00255854003, average = 0.000292020944

forceCoeffs forceCoeffs1 output:
    Cm    = -4492.54679
    Cd    = -98.8264738
    Cl    = -8650.21862
    Cl(f) = -8817.6561
    Cl(r) = 167.437481

Time = 12

DILUPBiCG:  Solving for Ux, Initial residual = 0.016981052, Final residual = 0.000263303442, No Iterations 1
DILUPBiCG:  Solving for Uy, Initial residual = 0.00622936669, Final residual = 0.000104750844, No Iterations 1
DILUPBiCG:  Solving for Uz, Initial residual = 0.0182397933, Final residual = 0.000287476003, No Iterations 1
DILUPBiCG:  Solving for h, Initial residual = 0.00113720041, Final residual = 1.13501715e-05, No Iterations 1
GAMG:  Solving for p_rgh, Initial residual = 0.0530045654, Final residual = 0.00050073446, No Iterations 4
time step continuity errors : sum local = 0.000357343735, global = -1.48314495e-06, cumulative = -0.000146378941
rho max/min : 1.20350243 1.1471859
smoothSolver:  Solving for omega, Initial residual = 0.000187704655, Final residual = 6.72781149e-06, No Iterations 3
smoothSolver:  Solving for k, Initial residual = 0.0416690167, Final residual = 0.00180858398, No Iterations 3
ExecutionTime = 156.07 s  ClockTime = 157 s

wallHeatFlux wallHeatFlux output:

Wall heat fluxes [W]
room_SIDE2
    convective: 0
    radiative:  -0
    total:      0
    Temperature : min = 292.849876, max = 293.918037, average = 293.549239
room_FLOOR
    convective: 0
    radiative:  -0
    total:      0
    Temperature : min = 292.846516, max = 298.457963, average = 293.597975
room_CEILING
    convective: 0
    radiative:  -0
    total:      0
    Temperature : min = 293.54999, max = 293.926107, average = 293.561974
room_BACK
    convective: 0
    radiative:  -0
    total:      0
    Temperature : min = 293.526084, max = 293.55, average = 293.549704
room_SIDE1
    convective: 0
    radiative:  -0
    total:      0
    Temperature : min = 292.849482, max = 293.920123, average = 293.549195
manikin
    convective: 457.341074
    radiative:  -0
    total:      457.341074
    Temperature : min = 307.15, max = 307.15, average = 307.15

yPlusRAS yplusRAS output:
    patch room_SIDE2 y+ : min = 0.0159027191, max = 7.28221204, average = 4.7054374
    patch room_FLOOR y+ : min = 0.00922598857, max = 7.07141794, average = 2.24979612
    patch room_CEILING y+ : min = 0.0102010753, max = 5.64510474, average = 3.48358765
    patch room_BACK y+ : min = 0.0153760694, max = 19.8682679, average = 1.98386425
    patch room_SIDE1 y+ : min = 0.0154233032, max = 7.28274815, average = 4.72856688
    patch manikin y+ : min = 0.00123327839, max = 3.3767543, average = 0.0401601741

yPlusRASLowRe yplusRASLowRe output:
room_SIDE2
    y+ : min = 0.276769887, max = 9.75014746, average = 7.0889666
    y : min = 0.000544684214, max = 0.00250000001, average = 0.00234603179
room_FLOOR
    y+ : min = 0.254188524, max = 9.61573135, average = 4.13552859
    y : min = 0.000139430812, max = 0.00249999971, average = 0.00161917022
room_CEILING
    y+ : min = 0.224444848, max = 8.11465698, average = 5.85376233
    y : min = 0.000647142072, max = 0.00249999973, average = 0.00231379284
room_BACK
    y+ : min = 0.232711425, max = 47.3518776, average = 4.21885258
    y : min = 0.000872666798, max = 0.00549005797, average = 0.00123342378
room_SIDE1
    y+ : min = 0.292346849, max = 9.75754104, average = 7.11083303
    y : min = 0.000544684643, max = 0.0025, average = 0.00234602486
manikin
    y+ : min = 0.0425412028, max = 8.95369042, average = 0.497826019
    y : min = 4.97449872e-05, max = 0.00255854003, average = 0.000292020944

forceCoeffs forceCoeffs1 output:
    Cm    = -4492.54676
    Cd    = -98.8984225
    Cl    = -8650.21319
    Cl(f) = -8817.65336
    Cl(r) = 167.440168

Time = 13

DILUPBiCG:  Solving for Ux, Initial residual = 0.0156274436, Final residual = 0.000235883844, No Iterations 1
DILUPBiCG:  Solving for Uy, Initial residual = 0.00543658433, Final residual = 8.76277228e-05, No Iterations 1
DILUPBiCG:  Solving for Uz, Initial residual = 0.0164716411, Final residual = 0.000250412199, No Iterations 1
DILUPBiCG:  Solving for h, Initial residual = 0.00102973763, Final residual = 1.02416875e-05, No Iterations 1
GAMG:  Solving for p_rgh, Initial residual = 0.0453124738, Final residual = 0.00037704644, No Iterations 3
time step continuity errors : sum local = 0.000262206268, global = 1.8784546e-06, cumulative = -0.000144500486
rho max/min : 1.20351168 1.14719481
smoothSolver:  Solving for omega, Initial residual = 0.000168922293, Final residual = 1.66882673e-05, No Iterations 2
smoothSolver:  Solving for k, Initial residual = 0.0387056812, Final residual = 0.0016310569, No Iterations 3
ExecutionTime = 168.02 s  ClockTime = 169 s

wallHeatFlux wallHeatFlux output:

Wall heat fluxes [W]
room_SIDE2
    convective: 0
    radiative:  -0
    total:      0
    Temperature : min = 292.843196, max = 293.921961, average = 293.549166
room_FLOOR
    convective: 0
    radiative:  -0
    total:      0
    Temperature : min = 292.840655, max = 298.678567, average = 293.600986
room_CEILING
    convective: 0
    radiative:  -0
    total:      0
    Temperature : min = 293.549989, max = 293.927905, average = 293.563199
room_BACK
    convective: 0
    radiative:  -0
    total:      0
    Temperature : min = 293.525725, max = 293.55, average = 293.549689
room_SIDE1
    convective: 0
    radiative:  -0
    total:      0
    Temperature : min = 292.842905, max = 293.923273, average = 293.549123
manikin
    convective: 428.820741
    radiative:  -0
    total:      428.820741
    Temperature : min = 307.15, max = 307.15, average = 307.15

yPlusRAS yplusRAS output:
    patch room_SIDE2 y+ : min = 0.0130374065, max = 7.26218811, average = 4.6719549
    patch room_FLOOR y+ : min = 0.0092608934, max = 7.06651464, average = 2.23814349
    patch room_CEILING y+ : min = 0.0089844873, max = 5.60532252, average = 3.46497184
    patch room_BACK y+ : min = 0.0111562515, max = 20.3523933, average = 1.97562834
    patch room_SIDE1 y+ : min = 0.0127107763, max = 7.26176243, average = 4.69505054
    patch manikin y+ : min = 0.00105005781, max = 3.32281016, average = 0.0378485269

yPlusRASLowRe yplusRASLowRe output:
room_SIDE2
    y+ : min = 0.249922012, max = 9.71040768, average = 7.04635347
    y : min = 0.000544684214, max = 0.00250000001, average = 0.00234603179
room_FLOOR
    y+ : min = 0.220007294, max = 9.59110465, average = 4.1199761
    y : min = 0.000139430812, max = 0.00249999971, average = 0.00161917022
room_CEILING
    y+ : min = 0.25134502, max = 8.06884468, average = 5.83092658
    y : min = 0.000647142072, max = 0.00249999973, average = 0.00231379284
room_BACK
    y+ : min = 0.212409143, max = 47.4022156, average = 4.19618031
    y : min = 0.000872666798, max = 0.00549005797, average = 0.00123342378
room_SIDE1
    y+ : min = 0.228457034, max = 9.7166651, average = 7.06808912
    y : min = 0.000544684643, max = 0.0025, average = 0.00234602486
manikin
    y+ : min = 0.0472211561, max = 8.80240876, average = 0.488802795
    y : min = 4.97449872e-05, max = 0.00255854003, average = 0.000292020944

forceCoeffs forceCoeffs1 output:
    Cm    = -4492.51124
    Cd    = -99.0627078
    Cl    = -8650.14243
    Cl(f) = -8817.58245
    Cl(r) = 167.440019

Time = 14

DILUPBiCG:  Solving for Ux, Initial residual = 0.0143266961, Final residual = 0.000211216872, No Iterations 1
DILUPBiCG:  Solving for Uy, Initial residual = 0.00492467175, Final residual = 7.88173363e-05, No Iterations 1
DILUPBiCG:  Solving for Uz, Initial residual = 0.0151667653, Final residual = 0.000224466019, No Iterations 1
DILUPBiCG:  Solving for h, Initial residual = 0.000942765757, Final residual = 9.49480061e-06, No Iterations 1
GAMG:  Solving for p_rgh, Initial residual = 0.0407010988, Final residual = 0.000323515958, No Iterations 2
time step continuity errors : sum local = 0.000219053047, global = -1.73310333e-05, cumulative = -0.000161831519
rho max/min : 1.20351052 1.14719391
smoothSolver:  Solving for omega, Initial residual = 0.000157300355, Final residual = 1.51332307e-05, No Iterations 2
smoothSolver:  Solving for k, Initial residual = 0.0360730068, Final residual = 0.00146679559, No Iterations 3
ExecutionTime = 179.75 s  ClockTime = 181 s

wallHeatFlux wallHeatFlux output:

Wall heat fluxes [W]
room_SIDE2
    convective: 0
    radiative:  -0
    total:      0
    Temperature : min = 292.838259, max = 293.924862, average = 293.549095
room_FLOOR
    convective: 0
    radiative:  -0
    total:      0
    Temperature : min = 292.836339, max = 298.876409, average = 293.604073
room_CEILING
    convective: 0
    radiative:  -0
    total:      0
    Temperature : min = 293.549988, max = 293.929183, average = 293.564428
room_BACK
    convective: 0
    radiative:  -0
    total:      0
    Temperature : min = 293.525242, max = 293.55, average = 293.549674
room_SIDE1
    convective: 0
    radiative:  -0
    total:      0
    Temperature : min = 292.838045, max = 293.925594, average = 293.54905
manikin
    convective: 404.366793
    radiative:  -0
    total:      404.366793
    Temperature : min = 307.15, max = 307.15, average = 307.15

yPlusRAS yplusRAS output:
    patch room_SIDE2 y+ : min = 0.0108357426, max = 7.23322993, average = 4.63518084
    patch room_FLOOR y+ : min = 0.00904399186, max = 7.06151325, average = 2.2245605
    patch room_CEILING y+ : min = 0.00864443389, max = 5.56144433, average = 3.44329352
    patch room_BACK y+ : min = 0.00828152939, max = 20.749779, average = 1.96510774
    patch room_SIDE1 y+ : min = 0.0104209543, max = 7.2320345, average = 4.65822273
    patch manikin y+ : min = 0.000918657693, max = 3.27919303, average = 0.0359973467

yPlusRASLowRe yplusRASLowRe output:
room_SIDE2
    y+ : min = 0.164191377, max = 9.67356029, average = 7.00327113
    y : min = 0.000544684214, max = 0.00250000001, average = 0.00234603179
room_FLOOR
    y+ : min = 0.196525801, max = 9.56284555, average = 4.10200356
    y : min = 0.000139430812, max = 0.00249999971, average = 0.00161917022
room_CEILING
    y+ : min = 0.251421305, max = 8.02276909, average = 5.8053797
    y : min = 0.000647142072, max = 0.00249999973, average = 0.00231379284
room_BACK
    y+ : min = 0.190083671, max = 47.4978166, average = 4.17347254
    y : min = 0.000872666798, max = 0.00549005797, average = 0.00123342378
room_SIDE1
    y+ : min = 0.148899219, max = 9.67839779, average = 7.02500795
    y : min = 0.000544684643, max = 0.0025, average = 0.00234602486
manikin
    y+ : min = 0.0342948651, max = 8.63912241, average = 0.479904425
    y : min = 4.97449872e-05, max = 0.00255854003, average = 0.000292020944

forceCoeffs forceCoeffs1 output:
    Cm    = -4492.51655
    Cd    = -99.0951823
    Cl    = -8650.1532
    Cl(f) = -8817.59315
    Cl(r) = 167.439952

Time = 15

DILUPBiCG:  Solving for Ux, Initial residual = 0.013169103, Final residual = 0.000188898646, No Iterations 1
DILUPBiCG:  Solving for Uy, Initial residual = 0.00449860526, Final residual = 7.18137053e-05, No Iterations 1
DILUPBiCG:  Solving for Uz, Initial residual = 0.0139720692, Final residual = 0.000201429824, No Iterations 1
DILUPBiCG:  Solving for h, Initial residual = 0.000871253804, Final residual = 8.86082414e-06, No Iterations 1
GAMG:  Solving for p_rgh, Initial residual = 0.0371397624, Final residual = 0.000305350882, No Iterations 3
time step continuity errors : sum local = 0.000201741767, global = -1.53065589e-05, cumulative = -0.000177138078
rho max/min : 1.20351256 1.14719589
smoothSolver:  Solving for omega, Initial residual = 0.000146214832, Final residual = 1.36840045e-05, No Iterations 2
smoothSolver:  Solving for k, Initial residual = 0.0337216605, Final residual = 0.00131918954, No Iterations 3
ExecutionTime = 191.71 s  ClockTime = 192 s

wallHeatFlux wallHeatFlux output:

Wall heat fluxes [W]
room_SIDE2
    convective: 0
    radiative:  -0
    total:      0
    Temperature : min = 292.834607, max = 293.92701, average = 293.549024
room_FLOOR
    convective: 0
    radiative:  -0
    total:      0
    Temperature : min = 292.833155, max = 299.039633, average = 293.607231
room_CEILING
    convective: 0
    radiative:  -0
    total:      0
    Temperature : min = 293.549987, max = 293.930092, average = 293.565659
room_BACK
    convective: 0
    radiative:  -0
    total:      0
    Temperature : min = 293.524675, max = 293.55, average = 293.549659
room_SIDE1
    convective: 0
    radiative:  -0
    total:      0
    Temperature : min = 292.83445, max = 293.927309, average = 293.548979
manikin
    convective: 383.182653
    radiative:  -0
    total:      383.182653
    Temperature : min = 307.15, max = 307.15, average = 307.15

yPlusRAS yplusRAS output:
    patch room_SIDE2 y+ : min = 0.00823689334, max = 7.19854162, average = 4.59635747
    patch room_FLOOR y+ : min = 0.00707049631, max = 7.16942873, average = 2.20978265
    patch room_CEILING y+ : min = 0.00880541676, max = 5.51584906, average = 3.41987419
    patch room_BACK y+ : min = 0.00631781772, max = 21.0214463, average = 1.95306426
    patch room_SIDE1 y+ : min = 0.00845168028, max = 7.19829758, average = 4.61933993
    patch manikin y+ : min = 0.000767994954, max = 3.23078397, average = 0.0344931553

yPlusRASLowRe yplusRASLowRe output:
room_SIDE2
    y+ : min = 0.150381131, max = 9.63562452, average = 6.96026841
    y : min = 0.000544684214, max = 0.00250000001, average = 0.00234603179
room_FLOOR
    y+ : min = 0.163605932, max = 9.55816332, average = 4.08417553
    y : min = 0.000139430812, max = 0.00249999971, average = 0.00161917022
room_CEILING
    y+ : min = 0.226778408, max = 7.97762622, average = 5.78047822
    y : min = 0.000647142072, max = 0.00249999973, average = 0.00231379284
room_BACK
    y+ : min = 0.161321195, max = 47.6433249, average = 4.15101408
    y : min = 0.000872666798, max = 0.00549005797, average = 0.00123342378
room_SIDE1
    y+ : min = 0.138401348, max = 9.63981165, average = 6.98201415
    y : min = 0.000544684643, max = 0.0025, average = 0.00234602486
manikin
    y+ : min = 0.0291256625, max = 8.46548324, average = 0.472049835
    y : min = 4.97449872e-05, max = 0.00255854003, average = 0.000292020944

forceCoeffs forceCoeffs1 output:
    Cm    = -4492.56457
    Cd    = -99.0639102
    Cl    = -8650.24666
    Cl(f) = -8817.6879
    Cl(r) = 167.44124

Time = 16

DILUPBiCG:  Solving for Ux, Initial residual = 0.0121571657, Final residual = 0.000169552548, No Iterations 1
DILUPBiCG:  Solving for Uy, Initial residual = 0.00408467877, Final residual = 6.54663874e-05, No Iterations 1
DILUPBiCG:  Solving for Uz, Initial residual = 0.0129290228, Final residual = 0.000181894559, No Iterations 1
DILUPBiCG:  Solving for h, Initial residual = 0.000809540843, Final residual = 8.42964312e-06, No Iterations 1
GAMG:  Solving for p_rgh, Initial residual = 0.0345491731, Final residual = 0.000215994573, No Iterations 3
time step continuity errors : sum local = 0.000139687267, global = -1.36738938e-05, cumulative = -0.000190811972
rho max/min : 1.20352218 1.14720507
smoothSolver:  Solving for omega, Initial residual = 0.000135666211, Final residual = 1.2391426e-05, No Iterations 2
smoothSolver:  Solving for k, Initial residual = 0.0315117546, Final residual = 0.00118775531, No Iterations 3
ExecutionTime = 203.75 s  ClockTime = 205 s

wallHeatFlux wallHeatFlux output:

Wall heat fluxes [W]
room_SIDE2
    convective: 0
    radiative:  -0
    total:      0
    Temperature : min = 292.831901, max = 293.928602, average = 293.548954
room_FLOOR
    convective: 0
    radiative:  -0
    total:      0
    Temperature : min = 292.830799, max = 299.176137, average = 293.610454
room_CEILING
    convective: 0
    radiative:  -0
    total:      0
    Temperature : min = 293.549986, max = 293.930739, average = 293.56689
room_BACK
    convective: 0
    radiative:  -0
    total:      0
    Temperature : min = 293.524079, max = 293.55, average = 293.549645
room_SIDE1
    convective: 0
    radiative:  -0
    total:      0
    Temperature : min = 292.831785, max = 293.928597, average = 293.548909
manikin
    convective: 364.676376
    radiative:  -0
    total:      364.676376
    Temperature : min = 307.15, max = 307.15, average = 307.15

yPlusRAS yplusRAS output:
    patch room_SIDE2 y+ : min = 0.00750271893, max = 7.16721847, average = 4.55622656
    patch room_FLOOR y+ : min = 0.0056160795, max = 7.2557309, average = 2.19427803
    patch room_CEILING y+ : min = 0.00924191278, max = 5.46952784, average = 3.39527598
    patch room_BACK y+ : min = 0.00509118373, max = 21.2170356, average = 1.94005808
    patch room_SIDE1 y+ : min = 0.00725374207, max = 7.166711, average = 4.57913116
    patch manikin y+ : min = 0.000652116635, max = 3.17585296, average = 0.0332608196

yPlusRASLowRe yplusRASLowRe output:
room_SIDE2
    y+ : min = 0.101489308, max = 9.59584364, average = 6.91717138
    y : min = 0.000544684214, max = 0.00250000001, average = 0.00234603179
room_FLOOR
    y+ : min = 0.148244161, max = 9.64265602, average = 4.06658108
    y : min = 0.000139430812, max = 0.00249999971, average = 0.00161917022
room_CEILING
    y+ : min = 0.207420229, max = 7.93297318, average = 5.75514086
    y : min = 0.000647142072, max = 0.00249999973, average = 0.00231379284
room_BACK
    y+ : min = 0.142980802, max = 47.8313447, average = 4.12869714
    y : min = 0.000872666798, max = 0.00549005797, average = 0.00123342378
room_SIDE1
    y+ : min = 0.163049767, max = 9.59923315, average = 6.93882919
    y : min = 0.000544684643, max = 0.0025, average = 0.00234602486
manikin
    y+ : min = 0.0208665745, max = 8.28221086, average = 0.465345079
    y : min = 4.97449872e-05, max = 0.00255854003, average = 0.000292020944

forceCoeffs forceCoeffs1 output:
    Cm    = -4492.60965
    Cd    = -99.0169683
    Cl    = -8650.33389
    Cl(f) = -8817.7766
    Cl(r) = 167.442702

Time = 17

DILUPBiCG:  Solving for Ux, Initial residual = 0.0112077051, Final residual = 0.000151936846, No Iterations 1
DILUPBiCG:  Solving for Uy, Initial residual = 0.00370877348, Final residual = 5.99597773e-05, No Iterations 1
DILUPBiCG:  Solving for Uz, Initial residual = 0.0119799148, Final residual = 0.000164510072, No Iterations 1
DILUPBiCG:  Solving for h, Initial residual = 0.000757324733, Final residual = 8.00947216e-06, No Iterations 1
GAMG:  Solving for p_rgh, Initial residual = 0.032328129, Final residual = 0.000216197843, No Iterations 2
time step continuity errors : sum local = 0.000137157565, global = -2.43256802e-05, cumulative = -0.000215137652
rho max/min : 1.20353079 1.14721329
smoothSolver:  Solving for omega, Initial residual = 0.000125359289, Final residual = 1.12161286e-05, No Iterations 2
smoothSolver:  Solving for k, Initial residual = 0.0294016975, Final residual = 0.00107103185, No Iterations 3
ExecutionTime = 215.75 s  ClockTime = 217 s

wallHeatFlux wallHeatFlux output:

Wall heat fluxes [W]
room_SIDE2
    convective: 0
    radiative:  -0
    total:      0
    Temperature : min = 292.829892, max = 293.929784, average = 293.548884
room_FLOOR
    convective: 0
    radiative:  -0
    total:      0
    Temperature : min = 292.829053, max = 299.291768, average = 293.613735
room_CEILING
    convective: 0
    radiative:  -0
    total:      0
    Temperature : min = 293.549985, max = 293.9312, average = 293.568121
room_BACK
    convective: 0
    radiative:  -0
    total:      0
    Temperature : min = 293.523468, max = 293.55, average = 293.549631
room_SIDE1
    convective: 0
    radiative:  -0
    total:      0
    Temperature : min = 292.829807, max = 293.929776, average = 293.54884
manikin
    convective: 348.367562
    radiative:  -0
    total:      348.367562
    Temperature : min = 307.15, max = 307.15, average = 307.15

yPlusRAS yplusRAS output:
    patch room_SIDE2 y+ : min = 0.00558785388, max = 7.13193247, average = 4.51515526
    patch room_FLOOR y+ : min = 0.00452229257, max = 7.31941521, average = 2.17813597
    patch room_CEILING y+ : min = 0.00815973102, max = 5.42285622, average = 3.36945431
    patch room_BACK y+ : min = 0.00455995799, max = 21.3671498, average = 1.92644638
    patch room_SIDE1 y+ : min = 0.0057867827, max = 7.13078278, average = 4.53795257
    patch manikin y+ : min = 0.000598612128, max = 3.11579485, average = 0.0322499004

yPlusRASLowRe yplusRASLowRe output:
room_SIDE2
    y+ : min = 0.128188259, max = 9.55386722, average = 6.87391027
    y : min = 0.000544684214, max = 0.00250000001, average = 0.00234603179
room_FLOOR
    y+ : min = 0.0607844549, max = 9.70648854, average = 4.04846815
    y : min = 0.000139430812, max = 0.00249999971, average = 0.00161917022
room_CEILING
    y+ : min = 0.186583284, max = 7.88797512, average = 5.72805299
    y : min = 0.000647142072, max = 0.00249999973, average = 0.00231379284
room_BACK
    y+ : min = 0.184428828, max = 48.0390845, average = 4.10675431
    y : min = 0.000872666798, max = 0.00549005797, average = 0.00123342378
room_SIDE1
    y+ : min = 0.126701064, max = 9.55634207, average = 6.89541497
    y : min = 0.000544684643, max = 0.0025, average = 0.00234602486
manikin
    y+ : min = 0.029693402, max = 8.12496194, average = 0.459749054
    y : min = 4.97449872e-05, max = 0.00255854003, average = 0.000292020944

forceCoeffs forceCoeffs1 output:
    Cm    = -4492.63065
    Cd    = -98.9987118
    Cl    = -8650.37417
    Cl(f) = -8817.81774
    Cl(r) = 167.443567

Time = 18

DILUPBiCG:  Solving for Ux, Initial residual = 0.0103028899, Final residual = 0.000135743338, No Iterations 1
DILUPBiCG:  Solving for Uy, Initial residual = 0.00337539563, Final residual = 5.5179352e-05, No Iterations 1
DILUPBiCG:  Solving for Uz, Initial residual = 0.0110474796, Final residual = 0.000148140842, No Iterations 1
DILUPBiCG:  Solving for h, Initial residual = 0.000712753713, Final residual = 7.62776878e-06, No Iterations 1
GAMG:  Solving for p_rgh, Initial residual = 0.0304584778, Final residual = 0.000301623967, No Iterations 2
time step continuity errors : sum local = 0.000188016626, global = -2.51003679e-05, cumulative = -0.00024023802
rho max/min : 1.20353515 1.14721746
smoothSolver:  Solving for omega, Initial residual = 0.000115204123, Final residual = 1.01442287e-05, No Iterations 2
smoothSolver:  Solving for k, Initial residual = 0.0273993451, Final residual = 0.000967747681, No Iterations 3
ExecutionTime = 227.15 s  ClockTime = 228 s

wallHeatFlux wallHeatFlux output:

Wall heat fluxes [W]
room_SIDE2
    convective: 0
    radiative:  -0
    total:      0
    Temperature : min = 292.828397, max = 293.930661, average = 293.548815
room_FLOOR
    convective: 0
    radiative:  -0
    total:      0
    Temperature : min = 292.827755, max = 299.391479, average = 293.61707
room_CEILING
    convective: 0
    radiative:  -0
    total:      0
    Temperature : min = 293.549983, max = 293.931529, average = 293.569352
room_BACK
    convective: 0
    radiative:  -0
    total:      0
    Temperature : min = 293.522868, max = 293.550001, average = 293.549618
room_SIDE1
    convective: 0
    radiative:  -0
    total:      0
    Temperature : min = 292.828335, max = 293.930653, average = 293.548772
manikin
    convective: 333.884752
    radiative:  -0
    total:      333.884752
    Temperature : min = 307.15, max = 307.15, average = 307.15

yPlusRAS yplusRAS output:
    patch room_SIDE2 y+ : min = 0.00430570282, max = 7.0927039, average = 4.4733819
    patch room_FLOOR y+ : min = 0.00342722078, max = 7.36016652, average = 2.16134952
    patch room_CEILING y+ : min = 0.00724091756, max = 5.37573872, average = 3.34235747
    patch room_BACK y+ : min = 0.00445050518, max = 21.4886998, average = 1.91253829
    patch room_SIDE1 y+ : min = 0.00453071534, max = 7.09100165, average = 4.49604293
    patch manikin y+ : min = 0.000555643578, max = 3.0518377, average = 0.0314148038

yPlusRASLowRe yplusRASLowRe output:
room_SIDE2
    y+ : min = 0.0991061907, max = 9.51433105, average = 6.83053944
    y : min = 0.000544684214, max = 0.00250000001, average = 0.00234603179
room_FLOOR
    y+ : min = 0.100231587, max = 9.74940984, average = 4.02989351
    y : min = 0.000139430812, max = 0.00249999971, average = 0.00161917022
room_CEILING
    y+ : min = 0.165843238, max = 7.84300034, average = 5.69921645
    y : min = 0.000647142072, max = 0.00249999973, average = 0.00231379284
room_BACK
    y+ : min = 0.20090993, max = 48.2534573, average = 4.0858648
    y : min = 0.000872666798, max = 0.00549005797, average = 0.00123342378
room_SIDE1
    y+ : min = 0.145166486, max = 9.51539135, average = 6.85192436
    y : min = 0.000544684643, max = 0.0025, average = 0.00234602486
manikin
    y+ : min = 0.0261653043, max = 8.02376083, average = 0.455099851
    y : min = 4.97449872e-05, max = 0.00255854003, average = 0.000292020944

forceCoeffs forceCoeffs1 output:
    Cm    = -4492.6493
    Cd    = -98.9946958
    Cl    = -8650.40987
    Cl(f) = -8817.85423
    Cl(r) = 167.444365

Time = 19

DILUPBiCG:  Solving for Ux, Initial residual = 0.0094715205, Final residual = 0.000121714758, No Iterations 1
DILUPBiCG:  Solving for Uy, Initial residual = 0.0030658712, Final residual = 5.09401605e-05, No Iterations 1
DILUPBiCG:  Solving for Uz, Initial residual = 0.010179749, Final residual = 0.000133503254, No Iterations 1
DILUPBiCG:  Solving for h, Initial residual = 0.000673509734, Final residual = 7.36429643e-06, No Iterations 1
GAMG:  Solving for p_rgh, Initial residual = 0.0287222788, Final residual = 0.000181930922, No Iterations 3
time step continuity errors : sum local = 0.000111727856, global = -1.00895157e-05, cumulative = -0.000250327536
rho max/min : 1.2035401 1.14722218
smoothSolver:  Solving for omega, Initial residual = 0.000105285189, Final residual = 9.17354293e-06, No Iterations 2
smoothSolver:  Solving for k, Initial residual = 0.0255051733, Final residual = 0.000877265657, No Iterations 3
ExecutionTime = 238.83 s  ClockTime = 240 s

wallHeatFlux wallHeatFlux output:

Wall heat fluxes [W]
room_SIDE2
    convective: 0
    radiative:  -0
    total:      0
    Temperature : min = 292.827283, max = 293.931314, average = 293.548746
room_FLOOR
    convective: 0
    radiative:  -0
    total:      0
    Temperature : min = 292.826788, max = 299.478751, average = 293.620453
room_CEILING
    convective: 0
    radiative:  -0
    total:      0
    Temperature : min = 293.549982, max = 293.931764, average = 293.570583
room_BACK
    convective: 0
    radiative:  -0
    total:      0
    Temperature : min = 293.522288, max = 293.550001, average = 293.549605
room_SIDE1
    convective: 0
    radiative:  -0
    total:      0
    Temperature : min = 292.827237, max = 293.931306, average = 293.548704
manikin
    convective: 320.933264
    radiative:  -0
    total:      320.933264
    Temperature : min = 307.15, max = 307.15, average = 307.15

yPlusRAS yplusRAS output:
    patch room_SIDE2 y+ : min = 0.00326333773, max = 7.05056208, average = 4.4311482
    patch room_FLOOR y+ : min = 0.00266862269, max = 7.3854253, average = 2.14391655
    patch room_CEILING y+ : min = 0.0065815911, max = 5.32791143, average = 3.31413521
    patch room_BACK y+ : min = 0.00457767378, max = 21.5935827, average = 1.89866481
    patch room_SIDE1 y+ : min = 0.00342352265, max = 7.04799908, average = 4.45365408
    patch manikin y+ : min = 0.000517812911, max = 2.98498945, average = 0.0307273458

yPlusRASLowRe yplusRASLowRe output:
room_SIDE2
    y+ : min = 0.108854797, max = 9.47626379, average = 6.78734086
    y : min = 0.000544684214, max = 0.00250000001, average = 0.00234603179
room_FLOOR
    y+ : min = 0.0799582919, max = 9.81145122, average = 4.01055585
    y : min = 0.000139430812, max = 0.00249999971, average = 0.00161917022
room_CEILING
    y+ : min = 0.152521154, max = 7.79859727, average = 5.66923643
    y : min = 0.000647142072, max = 0.00249999973, average = 0.00231379284
room_BACK
    y+ : min = 0.161586806, max = 48.4714884, average = 4.06681049
    y : min = 0.000872666798, max = 0.00549005797, average = 0.00123342378
room_SIDE1
    y+ : min = 0.123696957, max = 9.47580637, average = 6.80861545
    y : min = 0.000544684643, max = 0.0025, average = 0.00234602486
manikin
    y+ : min = 0.0288887549, max = 7.91358963, average = 0.451364858
    y : min = 4.97449872e-05, max = 0.00255854003, average = 0.000292020944

forceCoeffs forceCoeffs1 output:
    Cm    = -4492.67083
    Cd    = -98.9962707
    Cl    = -8650.45082
    Cl(f) = -8817.89624
    Cl(r) = 167.445416

Time = 20

DILUPBiCG:  Solving for Ux, Initial residual = 0.00871685682, Final residual = 0.000109502717, No Iterations 1
DILUPBiCG:  Solving for Uy, Initial residual = 0.00277609903, Final residual = 4.72570507e-05, No Iterations 1
DILUPBiCG:  Solving for Uz, Initial residual = 0.00938284175, Final residual = 0.000120585901, No Iterations 1
DILUPBiCG:  Solving for h, Initial residual = 0.000638705381, Final residual = 7.20033606e-06, No Iterations 1
GAMG:  Solving for p_rgh, Initial residual = 0.0269447954, Final residual = 0.000240307567, No Iterations 2
time step continuity errors : sum local = 0.000145752618, global = -1.59970514e-05, cumulative = -0.000266324587
rho max/min : 1.20354674 1.14722847
smoothSolver:  Solving for omega, Initial residual = 9.6177578e-05, Final residual = 8.31937772e-06, No Iterations 2
smoothSolver:  Solving for k, Initial residual = 0.0236861891, Final residual = 0.000798243476, No Iterations 3
ExecutionTime = 250.13 s  ClockTime = 251 s

wallHeatFlux wallHeatFlux output:

Wall heat fluxes [W]
room_SIDE2
    convective: 0
    radiative:  -0
    total:      0
    Temperature : min = 292.826441, max = 293.9318, average = 293.548678
room_FLOOR
    convective: 0
    radiative:  -0
    total:      0
    Temperature : min = 292.826067, max = 299.556637, average = 293.623885
room_CEILING
    convective: 0
    radiative:  -0
    total:      0
    Temperature : min = 293.549981, max = 293.931932, average = 293.571811
room_BACK
    convective: 0
    radiative:  -0
    total:      0
    Temperature : min = 293.521734, max = 293.550001, average = 293.549594
room_SIDE1
    convective: 0
    radiative:  -0
    total:      0
    Temperature : min = 292.826397, max = 293.931793, average = 293.548637
manikin
    convective: 309.285746
    radiative:  -0
    total:      309.285746
    Temperature : min = 307.15, max = 307.15, average = 307.15

yPlusRAS yplusRAS output:
    patch room_SIDE2 y+ : min = 0.00246886166, max = 7.0134732, average = 4.38862762
    patch room_FLOOR y+ : min = 0.0024489196, max = 7.43549697, average = 2.12593088
    patch room_CEILING y+ : min = 0.00612670429, max = 5.27954978, average = 3.28504253
    patch room_BACK y+ : min = 0.00483022873, max = 21.687468, average = 1.88501672
    patch room_SIDE1 y+ : min = 0.00281588544, max = 7.00885316, average = 4.41097582
    patch manikin y+ : min = 0.000489914337, max = 2.94458498, average = 0.0301572956

yPlusRASLowRe yplusRASLowRe output:
room_SIDE2
    y+ : min = 0.0870396888, max = 9.43590832, average = 6.74431812
    y : min = 0.000544684214, max = 0.00250000001, average = 0.00234603179
room_FLOOR
    y+ : min = 0.106339554, max = 9.86734138, average = 3.99069859
    y : min = 0.000139430812, max = 0.00249999971, average = 0.00161917022
room_CEILING
    y+ : min = 0.142821321, max = 7.75401256, average = 5.63863438
    y : min = 0.000647142072, max = 0.00249999973, average = 0.00231379284
room_BACK
    y+ : min = 0.182397428, max = 48.6829591, average = 4.04919202
    y : min = 0.000872666798, max = 0.00549005797, average = 0.00123342378
room_SIDE1
    y+ : min = 0.119585468, max = 9.4342738, average = 6.76550232
    y : min = 0.000544684643, max = 0.0025, average = 0.00234602486
manikin
    y+ : min = 0.0163992329, max = 7.79569592, average = 0.448305073
    y : min = 4.97449872e-05, max = 0.00255854003, average = 0.000292020944

forceCoeffs forceCoeffs1 output:
    Cm    = -4492.68228
    Cd    = -98.9920512
    Cl    = -8650.47257
    Cl(f) = -8817.91856
    Cl(r) = 167.445988

Time = 21

DILUPBiCG:  Solving for Ux, Initial residual = 0.00798905201, Final residual = 9.7987442e-05, No Iterations 1
DILUPBiCG:  Solving for Uy, Initial residual = 0.00253347173, Final residual = 4.41752857e-05, No Iterations 1
DILUPBiCG:  Solving for Uz, Initial residual = 0.00862794024, Final residual = 0.000108718217, No Iterations 1
DILUPBiCG:  Solving for h, Initial residual = 0.000608869299, Final residual = 6.99451009e-06, No Iterations 1
GAMG:  Solving for p_rgh, Initial residual = 0.02543685, Final residual = 0.000176802763, No Iterations 2
time step continuity errors : sum local = 0.000105984434, global = -1.67027198e-05, cumulative = -0.000283027307
rho max/min : 1.20354957 1.14723116
smoothSolver:  Solving for omega, Initial residual = 8.76674414e-05, Final residual = 7.54341845e-06, No Iterations 2
smoothSolver:  Solving for k, Initial residual = 0.0219937971, Final residual = 0.00217701425, No Iterations 2
ExecutionTime = 261.37 s  ClockTime = 262 s

wallHeatFlux wallHeatFlux output:

Wall heat fluxes [W]
room_SIDE2
    convective: 0
    radiative:  -0
    total:      0
    Temperature : min = 292.8258, max = 293.932163, average = 293.54861
room_FLOOR
    convective: 0
    radiative:  -0
    total:      0
    Temperature : min = 292.825527, max = 299.645585, average = 293.627362
room_CEILING
    convective: 0
    radiative:  -0
    total:      0
    Temperature : min = 293.54998, max = 293.932053, average = 293.573038
room_BACK
    convective: 0
    radiative:  -0
    total:      0
    Temperature : min = 293.521219, max = 293.550001, average = 293.549584
room_SIDE1
    convective: 0
    radiative:  -0
    total:      0
    Temperature : min = 292.825767, max = 293.932156, average = 293.54857
manikin
    convective: 298.741289
    radiative:  -0
    total:      298.741289
    Temperature : min = 307.15, max = 307.15, average = 307.15

yPlusRAS yplusRAS output:
    patch room_SIDE2 y+ : min = 0.00219534837, max = 6.97485958, average = 4.34629333
    patch room_FLOOR y+ : min = 0.00254672622, max = 7.46094069, average = 2.10762515
    patch room_CEILING y+ : min = 0.00581045743, max = 5.23202843, average = 3.25560653
    patch room_BACK y+ : min = 0.00513174147, max = 21.7606884, average = 1.87185401
    patch room_SIDE1 y+ : min = 0.00229046682, max = 6.96914141, average = 4.36850898
    patch manikin y+ : min = 0.000442183097, max = 2.9170462, average = 0.0296957092

yPlusRASLowRe yplusRASLowRe output:
room_SIDE2
    y+ : min = 0.0756359095, max = 9.39338065, average = 6.70145314
    y : min = 0.000544684214, max = 0.00250000001, average = 0.00234603179
room_FLOOR
    y+ : min = 0.131859438, max = 9.90357474, average = 3.9704615
    y : min = 0.000139430812, max = 0.00249999971, average = 0.00161917022
room_CEILING
    y+ : min = 0.136418169, max = 7.70926745, average = 5.60769045
    y : min = 0.000647142072, max = 0.00249999973, average = 0.00231379284
room_BACK
    y+ : min = 0.151451514, max = 48.8826247, average = 4.03280042
    y : min = 0.000872666798, max = 0.00549005797, average = 0.00123342378
room_SIDE1
    y+ : min = 0.109694469, max = 9.3905185, average = 6.72256052
    y : min = 0.000544684643, max = 0.0025, average = 0.00234602486
manikin
    y+ : min = 0.022946791, max = 7.67105666, average = 0.445969646
    y : min = 4.97449872e-05, max = 0.00255854003, average = 0.000292020944

forceCoeffs forceCoeffs1 output:
    Cm    = -4492.696
    Cd    = -98.9830387
    Cl    = -8650.49867
    Cl(f) = -8817.94533
    Cl(r) = 167.446666

Time = 22

DILUPBiCG:  Solving for Ux, Initial residual = 0.00731600381, Final residual = 8.77998979e-05, No Iterations 1
DILUPBiCG:  Solving for Uy, Initial residual = 0.00231342532, Final residual = 4.1588286e-05, No Iterations 1
DILUPBiCG:  Solving for Uz, Initial residual = 0.00793619244, Final residual = 9.82042753e-05, No Iterations 1
DILUPBiCG:  Solving for h, Initial residual = 0.000581705341, Final residual = 6.85230336e-06, No Iterations 1
GAMG:  Solving for p_rgh, Initial residual = 0.02409648, Final residual = 0.000166433806, No Iterations 2
time step continuity errors : sum local = 9.86820357e-05, global = -1.72148778e-05, cumulative = -0.000300242185
rho max/min : 1.20355272 1.14723416
smoothSolver:  Solving for omega, Initial residual = 7.88758533e-05, Final residual = 6.80115065e-06, No Iterations 2
smoothSolver:  Solving for k, Initial residual = 0.0204688416, Final residual = 0.00201515313, No Iterations 2
ExecutionTime = 273.15 s  ClockTime = 274 s

wallHeatFlux wallHeatFlux output:

Wall heat fluxes [W]
room_SIDE2
    convective: 0
    radiative:  -0
    total:      0
    Temperature : min = 292.825321, max = 293.932434, average = 293.548542
room_FLOOR
    convective: 0
    radiative:  -0
    total:      0
    Temperature : min = 292.825122, max = 299.749848, average = 293.630883
room_CEILING
    convective: 0
    radiative:  -0
    total:      0
    Temperature : min = 293.54998, max = 293.932139, average = 293.574264
room_BACK
    convective: 0
    radiative:  -0
    total:      0
    Temperature : min = 293.520748, max = 293.550001, average = 293.549574
room_SIDE1
    convective: 0
    radiative:  -0
    total:      0
    Temperature : min = 292.825296, max = 293.932428, average = 293.548503
manikin
    convective: 289.150007
    radiative:  -0
    total:      289.150007
    Temperature : min = 307.15, max = 307.15, average = 307.15

yPlusRAS yplusRAS output:
    patch room_SIDE2 y+ : min = 0.00222755248, max = 6.93335856, average = 4.30372329
    patch room_FLOOR y+ : min = 0.00281594279, max = 7.46390004, average = 2.08894196
    patch room_CEILING y+ : min = 0.00559225085, max = 5.18490217, average = 3.22560537
    patch room_BACK y+ : min = 0.00543658547, max = 21.8269809, average = 1.85907743
    patch room_SIDE1 y+ : min = 0.00185688679, max = 6.92675758, average = 4.32579925
    patch manikin y+ : min = 0.000412223675, max = 2.88729508, average = 0.0293181969

yPlusRASLowRe yplusRASLowRe output:
room_SIDE2
    y+ : min = 0.0779467134, max = 9.35353518, average = 6.6586672
    y : min = 0.000544684214, max = 0.00250000001, average = 0.00234603179
room_FLOOR
    y+ : min = 0.114361525, max = 9.92053412, average = 3.95003097
    y : min = 0.000139430812, max = 0.00249999971, average = 0.00161917022
room_CEILING
    y+ : min = 0.132750928, max = 7.66437065, average = 5.57638363
    y : min = 0.000647142072, max = 0.00249999973, average = 0.00231379284
room_BACK
    y+ : min = 0.146438766, max = 49.070777, average = 4.0176185
    y : min = 0.000872666798, max = 0.00549005797, average = 0.00123342378
room_SIDE1
    y+ : min = 0.101896902, max = 9.35079307, average = 6.67967529
    y : min = 0.000544684643, max = 0.0025, average = 0.00234602486
manikin
    y+ : min = 0.0273500735, max = 7.54084266, average = 0.444254974
    y : min = 4.97449872e-05, max = 0.00255854003, average = 0.000292020944

forceCoeffs forceCoeffs1 output:
    Cm    = -4492.71175
    Cd    = -98.9728211
    Cl    = -8650.52878
    Cl(f) = -8817.97614
    Cl(r) = 167.447356

Time = 23

DILUPBiCG:  Solving for Ux, Initial residual = 0.00669403856, Final residual = 7.87856489e-05, No Iterations 1
[...]
manikin
    convective: 132.660479
    radiative:  -0
    total:      132.660479
    Temperature : min = 307.15, max = 307.15, average = 307.15

yPlusRAS yplusRAS output:
    patch room_SIDE2 y+ : min = 0.00431921596, max = 3.2325823, average = 1.04380672
    patch room_FLOOR y+ : min = 0.000730636697, max = 3.234079, average = 0.722939606
    patch room_CEILING y+ : min = 0.00346456947, max = 3.21769559, average = 0.836850415
    patch room_BACK y+ : min = 0.00417916486, max = 19.0984612, average = 1.69961097
    patch room_SIDE1 y+ : min = 0.00454408102, max = 3.23196556, average = 1.04240985
    patch manikin y+ : min = 0.000110121668, max = 2.59271405, average = 0.0765045942

yPlusRASLowRe yplusRASLowRe output:
room_SIDE2
    y+ : min = 0.192922425, max = 6.45862252, average = 3.02451102
    y : min = 0.000544684214, max = 0.00250000001, average = 0.00234603179
room_FLOOR
    y+ : min = 0.0727811144, max = 6.46133503, average = 2.32395118
    y : min = 0.000139430812, max = 0.00249999971, average = 0.00161917022
room_CEILING
    y+ : min = 0.132944057, max = 6.43992067, average = 2.67017036
    y : min = 0.000647142072, max = 0.00249999973, average = 0.00231379284
room_BACK
    y+ : min = 0.191220476, max = 50.6646508, average = 3.94725169
    y : min = 0.000872666798, max = 0.00549005797, average = 0.00123342378
room_SIDE1
    y+ : min = 0.208875771, max = 6.45837029, average = 3.02237321
    y : min = 0.000544684643, max = 0.0025, average = 0.00234602486
manikin
    y+ : min = 0.0205889987, max = 7.50310628, average = 0.777765981
    y : min = 4.97449872e-05, max = 0.00255854003, average = 0.000292020944

forceCoeffs forceCoeffs1 output:
    Cm    = -4492.82325
    Cd    = -98.815209
    Cl    = -8650.74327
    Cl(f) = -8818.19488
    Cl(r) = 167.45161

Time = 405

DILUPBiCG:  Solving for Ux, Initial residual = 8.71209143e-05, Final residual = 1.83537887e-06, No Iterations 1
DILUPBiCG:  Solving for Uy, Initial residual = 5.27659272e-05, Final residual = 1.67294804e-06, No Iterations 1
DILUPBiCG:  Solving for Uz, Initial residual = 0.0001267458, Final residual = 7.18546283e-06, No Iterations 1
DILUPBiCG:  Solving for h, Initial residual = 5.04402626e-05, Final residual = 1.13398602e-06, No Iterations 1
GAMG:  Solving for p_rgh, Initial residual = 0.00289251551, Final residual = 1.18942435e-05, No Iterations 3
time step continuity errors : sum local = 5.49509606e-06, global = 2.86539862e-08, cumulative = -0.000386017544
rho max/min : 1.20357458 1.14725518
smoothSolver:  Solving for omega, Initial residual = 2.51417827e-06, Final residual = 9.96001545e-08, No Iterations 3
smoothSolver:  Solving for k, Initial residual = 0.000540743398, Final residual = 1.79673161e-05, No Iterations 3
ExecutionTime = 4685.37 s  ClockTime = 4694 s

wallHeatFlux wallHeatFlux output:

Wall heat fluxes [W]
room_SIDE2
    convective: 0
    radiative:  -0
    total:      0
    Temperature : min = 292.823848, max = 293.933267, average = 293.544181
room_FLOOR
    convective: 0
    radiative:  -0
    total:      0
    Temperature : min = 292.823848, max = 306.44704, average = 293.683243
room_CEILING
    convective: 0
    radiative:  -0
    total:      0
    Temperature : min = 293.67329, max = 293.932421, average = 293.91551
room_BACK
    convective: 0
    radiative:  -0
    total:      0
    Temperature : min = 292.862274, max = 293.924837, average = 293.542454
room_SIDE1
    convective: 0
    radiative:  -0
    total:      0
    Temperature : min = 292.823848, max = 293.933267, average = 293.543675
manikin
    convective: 132.689407
    radiative:  -0
    total:      132.689407
    Temperature : min = 307.15, max = 307.15, average = 307.15

yPlusRAS yplusRAS output:
    patch room_SIDE2 y+ : min = 0.00431800523, max = 3.23258245, average = 1.04358049
    patch room_FLOOR y+ : min = 0.000730144412, max = 3.23407902, average = 0.722716014
    patch room_CEILING y+ : min = 0.00346061105, max = 3.21769526, average = 0.836841929
    patch room_BACK y+ : min = 0.004213367, max = 19.099377, average = 1.69962188
    patch room_SIDE1 y+ : min = 0.00455411102, max = 3.23196576, average = 1.04220194
    patch manikin y+ : min = 9.49367601e-05, max = 2.59252435, average = 0.0765475571

yPlusRASLowRe yplusRASLowRe output:
room_SIDE2
    y+ : min = 0.201823403, max = 6.45862254, average = 3.02407246
    y : min = 0.000544684214, max = 0.00250000001, average = 0.00234603179
room_FLOOR
    y+ : min = 0.0740486957, max = 6.46133502, average = 2.32354529
    y : min = 0.000139430812, max = 0.00249999971, average = 0.00161917022
room_CEILING
    y+ : min = 0.132621396, max = 6.43992063, average = 2.67022954
    y : min = 0.000647142072, max = 0.00249999973, average = 0.00231379284
room_BACK
    y+ : min = 0.192674217, max = 50.6644357, average = 3.94741389
    y : min = 0.000872666798, max = 0.00549005797, average = 0.00123342378
room_SIDE1
    y+ : min = 0.209290785, max = 6.45837031, average = 3.02198527
    y : min = 0.000544684643, max = 0.0025, average = 0.00234602486
manikin
    y+ : min = 0.0182580188, max = 7.50465812, average = 0.778015672
    y : min = 4.97449872e-05, max = 0.00255854003, average = 0.000292020944

forceCoeffs forceCoeffs1 output:
    Cm    = -4492.82326
    Cd    = -98.8145602
    Cl    = -8650.74325
    Cl(f) = -8818.19488
    Cl(r) = 167.451628

Time = 406

DILUPBiCG:  Solving for Ux, Initial residual = 8.66918553e-05, Final residual = 1.83000359e-06, No Iterations 1
DILUPBiCG:  Solving for Uy, Initial residual = 5.25046229e-05, Final residual = 1.6676794e-06, No Iterations 1
DILUPBiCG:  Solving for Uz, Initial residual = 0.000126203416, Final residual = 6.99614139e-06, No Iterations 1
DILUPBiCG:  Solving for h, Initial residual = 5.03231126e-05, Final residual = 1.13182783e-06, No Iterations 1
GAMG:  Solving for p_rgh, Initial residual = 0.00289151861, Final residual = 1.18902777e-05, No Iterations 3
time step continuity errors : sum local = 5.49077653e-06, global = 2.81620168e-08, cumulative = -0.000385989382
rho max/min : 1.20357457 1.14725518
smoothSolver:  Solving for omega, Initial residual = 2.51360414e-06, Final residual = 9.93882978e-08, No Iterations 3
smoothSolver:  Solving for k, Initial residual = 0.000539999368, Final residual = 1.78921842e-05, No Iterations 3
ExecutionTime = 4696.81 s  ClockTime = 4705 s

wallHeatFlux wallHeatFlux output:

Wall heat fluxes [W]
room_SIDE2
    convective: 0
    radiative:  -0
    total:      0
    Temperature : min = 292.823848, max = 293.933267, average = 293.544243
room_FLOOR
    convective: 0
    radiative:  -0
    total:      0
    Temperature : min = 292.823848, max = 306.447361, average = 293.682982
room_CEILING
    convective: 0
    radiative:  -0
    total:      0
    Temperature : min = 293.674735, max = 293.932421, average = 293.91574
room_BACK
    convective: 0
    radiative:  -0
    total:      0
    Temperature : min = 292.861987, max = 293.924959, average = 293.542758
room_SIDE1
    convective: 0
    radiative:  -0
    total:      0
    Temperature : min = 292.823848, max = 293.933267, average = 293.543738
manikin
    convective: 132.718386
    radiative:  -0
    total:      132.718386
    Temperature : min = 307.15, max = 307.15, average = 307.15

yPlusRAS yplusRAS output:
    patch room_SIDE2 y+ : min = 0.00432000368, max = 3.2325826, average = 1.04335863
    patch room_FLOOR y+ : min = 0.000729642893, max = 3.23407903, average = 0.722494724
    patch room_CEILING y+ : min = 0.00345437496, max = 3.21769493, average = 0.836841622
    patch room_BACK y+ : min = 0.00425785209, max = 19.100268, average = 1.69963316
    patch room_SIDE1 y+ : min = 0.00456784927, max = 3.23196596, average = 1.04199858
    patch manikin y+ : min = 8.87632812e-05, max = 2.59233536, average = 0.0765911605

yPlusRASLowRe yplusRASLowRe output:
room_SIDE2
    y+ : min = 0.20197022, max = 6.45862255, average = 3.02364317
    y : min = 0.000544684214, max = 0.00250000001, average = 0.00234603179
room_FLOOR
    y+ : min = 0.0752900855, max = 6.46133502, average = 2.32314301
    y : min = 0.000139430812, max = 0.00249999971, average = 0.00161917022
room_CEILING
    y+ : min = 0.132182244, max = 6.43992059, average = 2.67030147
    y : min = 0.000647142072, max = 0.00249999973, average = 0.00231379284
room_BACK
    y+ : min = 0.147880977, max = 50.6642227, average = 3.94757336
    y : min = 0.000872666798, max = 0.00549005797, average = 0.00123342378
room_SIDE1
    y+ : min = 0.209755113, max = 6.45837033, average = 3.02160149
    y : min = 0.000544684643, max = 0.0025, average = 0.00234602486
manikin
    y+ : min = 0.0189971322, max = 7.50618533, average = 0.778262415
    y : min = 4.97449872e-05, max = 0.00255854003, average = 0.000292020944

forceCoeffs forceCoeffs1 output:
    Cm    = -4492.82327
    Cd    = -98.8139128
    Cl    = -8650.74324
    Cl(f) = -8818.19489
    Cl(r) = 167.451653

Time = 407

DILUPBiCG:  Solving for Ux, Initial residual = 8.62786414e-05, Final residual = 1.82529366e-06, No Iterations 1
DILUPBiCG:  Solving for Uy, Initial residual = 5.22524165e-05, Final residual = 1.66346817e-06, No Iterations 1
DILUPBiCG:  Solving for Uz, Initial residual = 0.000125676716, Final residual = 6.80287526e-06, No Iterations 1
DILUPBiCG:  Solving for h, Initial residual = 5.02077127e-05, Final residual = 1.12973145e-06, No Iterations 1
GAMG:  Solving for p_rgh, Initial residual = 0.00289043881, Final residual = 1.19132763e-05, No Iterations 3
time step continuity errors : sum local = 5.49892212e-06, global = 2.77213529e-08, cumulative = -0.000385961661
rho max/min : 1.20357457 1.14725518
smoothSolver:  Solving for omega, Initial residual = 2.509837e-06, Final residual = 9.91493482e-08, No Iterations 3
smoothSolver:  Solving for k, Initial residual = 0.000539085258, Final residual = 5.38726884e-05, No Iterations 2
ExecutionTime = 4707.9 s  ClockTime = 4717 s

wallHeatFlux wallHeatFlux output:

Wall heat fluxes [W]
room_SIDE2
    convective: 0
    radiative:  -0
    total:      0
    Temperature : min = 292.823848, max = 293.933267, average = 293.544306
room_FLOOR
    convective: 0
    radiative:  -0
    total:      0
    Temperature : min = 292.823848, max = 306.447676, average = 293.682727
room_CEILING
    convective: 0
    radiative:  -0
    total:      0
    Temperature : min = 293.676184, max = 293.932421, average = 293.915968
room_BACK
    convective: 0
    radiative:  -0
    total:      0
    Temperature : min = 292.861706, max = 293.925075, average = 293.543058
room_SIDE1
    convective: 0
    radiative:  -0
    total:      0
    Temperature : min = 292.823848, max = 293.933267, average = 293.543801
manikin
    convective: 132.747554
    radiative:  -0
    total:      132.747554
    Temperature : min = 307.15, max = 307.15, average = 307.15

yPlusRAS yplusRAS output:
    patch room_SIDE2 y+ : min = 0.0043251042, max = 3.23258275, average = 1.04314173
    patch room_FLOOR y+ : min = 0.000729132945, max = 3.23407904, average = 0.722276251
    patch room_CEILING y+ : min = 0.00344583606, max = 3.2176946, average = 0.836848732
    patch room_BACK y+ : min = 0.00431044829, max = 19.100975, average = 1.69964636
    patch room_SIDE1 y+ : min = 0.00458487097, max = 3.23196616, average = 1.0418001
    patch manikin y+ : min = 8.79302308e-05, max = 2.5921479, average = 0.0766348236

yPlusRASLowRe yplusRASLowRe output:
room_SIDE2
    y+ : min = 0.160243362, max = 6.45862257, average = 3.02322209
    y : min = 0.000544684214, max = 0.00250000001, average = 0.00234603179
room_FLOOR
    y+ : min = 0.0765049886, max = 6.46133501, average = 2.32274407
    y : min = 0.000139430812, max = 0.00249999971, average = 0.00161917022
room_CEILING
    y+ : min = 0.131612412, max = 6.43992056, average = 2.67038256
    y : min = 0.000647142072, max = 0.00249999973, average = 0.00231379284
room_BACK
    y+ : min = 0.148444783, max = 50.6640119, average = 3.94774291
    y : min = 0.000872666798, max = 0.00549005797, average = 0.00123342378
room_SIDE1
    y+ : min = 0.210282239, max = 6.45837036, average = 3.02122225
    y : min = 0.000544684643, max = 0.0025, average = 0.00234602486
manikin
    y+ : min = 0.0205560101, max = 7.50768416, average = 0.778506341
    y : min = 4.97449872e-05, max = 0.00255854003, average = 0.000292020944

forceCoeffs forceCoeffs1 output:
    Cm    = -4492.82329
    Cd    = -98.8132796
    Cl    = -8650.74322
    Cl(f) = -8818.1949
    Cl(r) = 167.451682

Time = 408

DILUPBiCG:  Solving for Ux, Initial residual = 8.5870008e-05, Final residual = 1.82021807e-06, No Iterations 1
DILUPBiCG:  Solving for Uy, Initial residual = 5.20043105e-05, Final residual = 1.6613458e-06, No Iterations 1
DILUPBiCG:  Solving for Uz, Initial residual = 0.000125150939, Final residual = 6.6140229e-06, No Iterations 1
DILUPBiCG:  Solving for h, Initial residual = 5.00958527e-05, Final residual = 1.1276734e-06, No Iterations 1
GAMG:  Solving for p_rgh, Initial residual = 0.00288746183, Final residual = 1.19599285e-05, No Iterations 3
time step continuity errors : sum local = 5.51789736e-06, global = 2.74220248e-08, cumulative = -0.000385934239
rho max/min : 1.20357457 1.14725518
smoothSolver:  Solving for omega, Initial residual = 2.49176867e-06, Final residual = 9.84097484e-08, No Iterations 3
smoothSolver:  Solving for k, Initial residual = 0.000539509585, Final residual = 1.78178442e-05, No Iterations 3
ExecutionTime = 4719.41 s  ClockTime = 4728 s

wallHeatFlux wallHeatFlux output:

Wall heat fluxes [W]
room_SIDE2
    convective: 0
    radiative:  -0
    total:      0
    Temperature : min = 292.823848, max = 293.933267, average = 293.544369
room_FLOOR
    convective: 0
    radiative:  -0
    total:      0
    Temperature : min = 292.823848, max = 306.447984, average = 293.682476
room_CEILING
    convective: 0
    radiative:  -0
    total:      0
    Temperature : min = 293.677637, max = 293.932421, average = 293.916194
room_BACK
    convective: 0
    radiative:  -0
    total:      0
    Temperature : min = 292.861431, max = 293.925191, average = 293.543355
room_SIDE1
    convective: 0
    radiative:  -0
    total:      0
    Temperature : min = 292.823848, max = 293.933267, average = 293.543864
manikin
    convective: 132.776698
    radiative:  -0
    total:      132.776698
    Temperature : min = 307.15, max = 307.15, average = 307.15

yPlusRAS yplusRAS output:
    patch room_SIDE2 y+ : min = 0.00433362245, max = 3.2325829, average = 1.04292944
    patch room_FLOOR y+ : min = 0.00072861313, max = 3.23407905, average = 0.722059514
    patch room_CEILING y+ : min = 0.00343562125, max = 3.21769428, average = 0.836862983
    patch room_BACK y+ : min = 0.00437015451, max = 19.1018195, average = 1.69965819
    patch room_SIDE1 y+ : min = 0.00460603492, max = 3.23196637, average = 1.04160643
    patch manikin y+ : min = 9.02117783e-05, max = 2.59196063, average = 0.0766781795

yPlusRASLowRe yplusRASLowRe output:
room_SIDE2
    y+ : min = 0.088349387, max = 6.45862259, average = 3.02281184
    y : min = 0.000544684214, max = 0.00250000001, average = 0.00234603179
room_FLOOR
    y+ : min = 0.0776933661, max = 6.46133501, average = 2.3223484
    y : min = 0.000139430812, max = 0.00249999971, average = 0.00161917022
room_CEILING
    y+ : min = 0.130981107, max = 6.43992052, average = 2.67047132
    y : min = 0.000647142072, max = 0.00249999973, average = 0.00231379284
room_BACK
    y+ : min = 0.198178041, max = 50.6638032, average = 3.94791944
    y : min = 0.000872666798, max = 0.00549005797, average = 0.00123342378
room_SIDE1
    y+ : min = 0.210946982, max = 6.45837038, average = 3.02084997
    y : min = 0.000544684643, max = 0.0025, average = 0.00234602486
manikin
    y+ : min = 0.0210649909, max = 7.50915665, average = 0.7787464
    y : min = 4.97449872e-05, max = 0.00255854003, average = 0.000292020944

forceCoeffs forceCoeffs1 output:
    Cm    = -4492.8233
    Cd    = -98.8126823
    Cl    = -8650.7432
    Cl(f) = -8818.1949
    Cl(r) = 167.451703

Time = 409

DILUPBiCG:  Solving for Ux, Initial residual = 8.54676026e-05, Final residual = 1.81496637e-06, No Iterations 1
DILUPBiCG:  Solving for Uy, Initial residual = 5.17567274e-05, Final residual = 1.65755435e-06, No Iterations 1
DILUPBiCG:  Solving for Uz, Initial residual = 0.000124632108, Final residual = 6.43117218e-06, No Iterations 1
DILUPBiCG:  Solving for h, Initial residual = 4.99849701e-05, Final residual = 1.12566776e-06, No Iterations 1
GAMG:  Solving for p_rgh, Initial residual = 0.00288499113, Final residual = 1.19893565e-05, No Iterations 3
time step continuity errors : sum local = 5.52897256e-06, global = 2.71682098e-08, cumulative = -0.000385907071
rho max/min : 1.20357457 1.14725518
smoothSolver:  Solving for omega, Initial residual = 2.49417935e-06, Final residual = 9.84887641e-08, No Iterations 3
smoothSolver:  Solving for k, Initial residual = 0.000539997459, Final residual = 5.38241521e-05, No Iterations 2
ExecutionTime = 4734 s  ClockTime = 4743 s

wallHeatFlux wallHeatFlux output:

Wall heat fluxes [W]
room_SIDE2
    convective: 0
    radiative:  -0
    total:      0
    Temperature : min = 292.823848, max = 293.933267, average = 293.544433
room_FLOOR
    convective: 0
    radiative:  -0
    total:      0
    Temperature : min = 292.823848, max = 306.448285, average = 293.682231
room_CEILING
    convective: 0
    radiative:  -0
    total:      0
    Temperature : min = 293.679094, max = 293.932421, average = 293.916417
room_BACK
    convective: 0
    radiative:  -0
    total:      0
    Temperature : min = 292.861158, max = 293.925307, average = 293.543649
room_SIDE1
    convective: 0
    radiative:  -0
    total:      0
    Temperature : min = 292.823848, max = 293.933267, average = 293.543928
manikin
    convective: 132.805796
    radiative:  -0
    total:      132.805796
    Temperature : min = 307.15, max = 307.15, average = 307.15

yPlusRAS yplusRAS output:
    patch room_SIDE2 y+ : min = 0.00434626427, max = 3.23258305, average = 1.04272242
    patch room_FLOOR y+ : min = 0.000728085312, max = 3.23407906, average = 0.721845406
    patch room_CEILING y+ : min = 0.00342454321, max = 3.21769396, average = 0.836882864
    patch room_BACK y+ : min = 0.00443681134, max = 19.1024884, average = 1.69967198
    patch room_SIDE1 y+ : min = 0.00463247516, max = 3.23196658, average = 1.04141805
    patch manikin y+ : min = 9.40134734e-05, max = 2.59177474, average = 0.0767207411

yPlusRASLowRe yplusRASLowRe output:
room_SIDE2
    y+ : min = 0.166578319, max = 6.45862261, average = 3.02242772
    y : min = 0.000544684214, max = 0.00250000001, average = 0.00234603179
room_FLOOR
    y+ : min = 0.0788551947, max = 6.461335, average = 2.32195579
    y : min = 0.000139430812, max = 0.00249999971, average = 0.00161917022
room_CEILING
    y+ : min = 0.130351272, max = 6.43992048, average = 2.67056521
    y : min = 0.000647142072, max = 0.00249999973, average = 0.00231379284
room_BACK
    y+ : min = 0.200341715, max = 50.6635967, average = 3.94809233
    y : min = 0.000872666798, max = 0.00549005797, average = 0.00123342378
room_SIDE1
    y+ : min = 0.211788122, max = 6.45837041, average = 3.0204862
    y : min = 0.000544684643, max = 0.0025, average = 0.00234602486
manikin
    y+ : min = 0.021298295, max = 7.5106061, average = 0.778979493
    y : min = 4.97449872e-05, max = 0.00255854003, average = 0.000292020944

forceCoeffs forceCoeffs1 output:
    Cm    = -4492.82332
    Cd    = -98.812094
    Cl    = -8650.74318
    Cl(f) = -8818.19491
    Cl(r) = 167.451726

Time = 410

DILUPBiCG:  Solving for Ux, Initial residual = 8.50687987e-05, Final residual = 1.81000836e-06, No Iterations 1
DILUPBiCG:  Solving for Uy, Initial residual = 5.15089566e-05, Final residual = 1.65367251e-06, No Iterations 1
DILUPBiCG:  Solving for Uz, Initial residual = 0.00012410729, Final residual = 6.25411889e-06, No Iterations 1
DILUPBiCG:  Solving for h, Initial residual = 4.98750372e-05, Final residual = 1.12358147e-06, No Iterations 1
