/*---------------------------------------------------------------------------*\
| =========                 |                                                 |
| \\      /  F ield         | OpenFOAM: The Open Source CFD Toolbox           |
|  \\    /   O peration     | Version:  2.3.1                                 |
|   \\  /    A nd           | Web:      www.OpenFOAM.org                      |
|    \\/     M anipulation  |                                                 |
\*---------------------------------------------------------------------------*/
Build  : 2.3.1-bcfaaa7b8660
Exec   : buoyantSimpleFoam -parallel
Date   : Jun 04 2017
Time   : 20:25:00
Host   : "ubuntu"
PID    : 3566
Case   : /home/cong/Desktop/AIVC/Case5
nProcs : 4
Slaves : 
3
(
"ubuntu.3567"
"ubuntu.3568"
"ubuntu.3569"
)

Pstream initialized with:
    floatTransfer      : 0
    nProcsSimpleSum    : 0
    commsType          : nonBlocking
    polling iterations : 0
sigFpe : Enabling floating point exception trapping (FOAM_SIGFPE).
fileModificationChecking : Monitoring run-time modified files using timeStampMaster
allowSystemOperations : Allowing user-supplied system call operations

// * * * * * * * * * * * * * * * * * * * * * * * * * * * * * * * * * * * * * //
Create time

Create mesh for time = 7000


Reading g
Reading thermophysical properties

Selecting thermodynamics package 
{
    type            heRhoThermo;
    mixture         pureMixture;
    transport       const;
    thermo          hConst;
    equationOfState perfectGas;
    specie          specie;
    energy          sensibleEnthalpy;
}

Reading field U

Reading/calculating face flux field phi

Creating turbulence model

Selecting RAS turbulence model kOmegaSST
kOmegaSSTCoeffs
{
    alphaK1         0.85;
    alphaK2         1;
    alphaOmega1     0.5;
    alphaOmega2     0.856;
    Prt             1;
    gamma1          0.555555556;
    gamma2          0.44;
    beta1           0.075;
    beta2           0.0828;
    betaStar        0.09;
    a1              0.31;
    b1              1;
    c1              10;
    F3              false;
}

Calculating field g.h

Reading field p_rgh

No finite volume options present

Selecting radiationModel none

SIMPLE: convergence criteria
    field "(p_rgh|p)"	 tolerance 1e-07
    field U	 tolerance 1e-08
    field h	 tolerance 1e-08
    field "(k|epsilon|omega)"	 tolerance 1e-08


Starting time loop

forceCoeffs forceCoeffs1:
    Not including porosity effects

Time = 7001

DILUPBiCG:  Solving for Ux, Initial residual = 0.000206653253, Final residual = 1.40342065e-07, No Iterations 2
DILUPBiCG:  Solving for Uy, Initial residual = 9.99424428e-05, Final residual = 3.89995441e-06, No Iterations 1
DILUPBiCG:  Solving for Uz, Initial residual = 0.000208323005, Final residual = 1.49433959e-05, No Iterations 1
DILUPBiCG:  Solving for h, Initial residual = 4.34404983e-05, Final residual = 9.83559059e-07, No Iterations 1
GAMG:  Solving for p_rgh, Initial residual = 0.00241271391, Final residual = 1.27142107e-05, No Iterations 2
time step continuity errors : sum local = 1.13452315e-05, global = 1.57827022e-07, cumulative = 1.57827022e-07
rho max/min : 1.21152048 1.14723619
smoothSolver:  Solving for omega, Initial residual = 4.54068063e-06, Final residual = 1.69522372e-07, No Iterations 3
smoothSolver:  Solving for k, Initial residual = 0.000956076041, Final residual = 8.98256582e-05, No Iterations 2
ExecutionTime = 14.92 s  ClockTime = 15 s

wallHeatFlux wallHeatFlux output:

Wall heat fluxes [W]
room_SIDE2
    convective: -0.0178158204
    radiative:  -0
    total:      -0.0178158204
    Temperature : min = 293.062137, max = 293.814477, average = 293.549768
room_FLOOR
    convective: 2.98778365
    radiative:  -0
    total:      2.98778365
    Temperature : min = 293.011943, max = 301.383832, average = 293.629257
room_CEILING
    convective: -1.44691432
    radiative:  -0
    total:      -1.44691432
    Temperature : min = 293.56837, max = 293.807015, average = 293.639895
room_BACK
    convective: -0.25230328
    radiative:  -0
    total:      -0.25230328
    Temperature : min = 293.020187, max = 293.820979, average = 293.566057
room_SIDE1
    convective: -0.109675494
    radiative:  -0
    total:      -0.109675494
    Temperature : min = 293.061805, max = 293.823874, average = 293.552414
manikin
    convective: 128.761918
    radiative:  -0
    total:      128.761918
    Temperature : min = 307.15, max = 307.15, average = 307.15

yPlusRAS yplusRAS output:
    patch room_SIDE2 y+ : min = 0.219537066, max = 7.82511987, average = 3.10358114
    patch room_FLOOR y+ : min = 0.0803725207, max = 6.54776954, average = 2.34274027
    patch room_CEILING y+ : min = 0.299993637, max = 6.53363404, average = 2.64047274
    patch room_BACK y+ : min = 0.164918073, max = 51.8016829, average = 4.09219731
    patch room_SIDE1 y+ : min = 0.189456527, max = 7.66600602, average = 3.09372084
    patch manikin y+ : min = 0.0221451514, max = 7.76666982, average = 0.822293706

yPlusRASLowRe yplusRASLowRe output:
room_SIDE2
    y+ : min = 0.219537066, max = 7.82511987, average = 3.10358114
    y : min = 0.000544684214, max = 0.00250000001, average = 0.00234603179
room_FLOOR
    y+ : min = 0.0803725207, max = 6.54776954, average = 2.34274027
    y : min = 0.000139430812, max = 0.00249999971, average = 0.00161917022
room_CEILING
    y+ : min = 0.299993637, max = 6.53363404, average = 2.64047274
    y : min = 0.000647142072, max = 0.00249999973, average = 0.00231379284
room_BACK
    y+ : min = 0.164918073, max = 51.8016829, average = 4.09219731
    y : min = 0.000872666798, max = 0.00549005797, average = 0.00123342378
room_SIDE1
    y+ : min = 0.189456527, max = 7.66600602, average = 3.09372084
    y : min = 0.000544684643, max = 0.0025, average = 0.00234602486
manikin
    y+ : min = 0.0221451514, max = 7.76666982, average = 0.822293706
    y : min = 4.97449872e-05, max = 0.00255854003, average = 0.000292020944

forceCoeffs forceCoeffs1 output:
    Cm    = -4492.73516
    Cd    = -98.6929121
    Cl    = -8650.59987
    Cl(f) = -8818.0351
    Cl(r) = 167.435225

Time = 7002

DILUPBiCG:  Solving for Ux, Initial residual = 0.000206854042, Final residual = 1.45371403e-07, No Iterations 2
DILUPBiCG:  Solving for Uy, Initial residual = 9.96133733e-05, Final residual = 4.5672571e-06, No Iterations 1
DILUPBiCG:  Solving for Uz, Initial residual = 0.000208535909, Final residual = 1.44565406e-05, No Iterations 1
DILUPBiCG:  Solving for h, Initial residual = 4.3465819e-05, Final residual = 9.70137144e-07, No Iterations 1
GAMG:  Solving for p_rgh, Initial residual = 0.00241056345, Final residual = 1.27941174e-05, No Iterations 2
time step continuity errors : sum local = 1.14166593e-05, global = 1.35387781e-07, cumulative = 2.93214802e-07
rho max/min : 1.21151985 1.14723618
smoothSolver:  Solving for omega, Initial residual = 4.52787761e-06, Final residual = 1.69039755e-07, No Iterations 3
smoothSolver:  Solving for k, Initial residual = 0.000963429459, Final residual = 8.98861788e-05, No Iterations 2
ExecutionTime = 26.58 s  ClockTime = 27 s

wallHeatFlux wallHeatFlux output:

Wall heat fluxes [W]
room_SIDE2
    convective: -0.0184418403
    radiative:  -0
    total:      -0.0184418403
    Temperature : min = 293.062137, max = 293.814477, average = 293.549785
room_FLOOR
    convective: 2.98751212
    radiative:  -0
    total:      2.98751212
    Temperature : min = 293.011947, max = 301.383845, average = 293.629272
room_CEILING
    convective: -1.44698044
    radiative:  -0
    total:      -1.44698044
    Temperature : min = 293.568597, max = 293.807015, average = 293.639898
room_BACK
    convective: -0.253617156
    radiative:  -0
    total:      -0.253617156
    Temperature : min = 293.02019, max = 293.819801, average = 293.566065
room_SIDE1
    convective: -0.109451912
    radiative:  -0
    total:      -0.109451912
    Temperature : min = 293.061805, max = 293.823874, average = 293.55241
manikin
    convective: 128.761852
    radiative:  -0
    total:      128.761852
    Temperature : min = 307.15, max = 307.15, average = 307.15

yPlusRAS yplusRAS output:
    patch room_SIDE2 y+ : min = 0.209974092, max = 7.82189485, average = 3.10321258
    patch room_FLOOR y+ : min = 0.0803683359, max = 6.54776956, average = 2.34262965
    patch room_CEILING y+ : min = 0.306406083, max = 6.53363405, average = 2.64036386
    patch room_BACK y+ : min = 0.145550894, max = 51.800577, average = 4.09236001
    patch room_SIDE1 y+ : min = 0.186634414, max = 7.67196877, average = 3.09359255
    patch manikin y+ : min = 0.0224549661, max = 7.76665161, average = 0.822310078

yPlusRASLowRe yplusRASLowRe output:
room_SIDE2
    y+ : min = 0.209974092, max = 7.82189485, average = 3.10321258
    y : min = 0.000544684214, max = 0.00250000001, average = 0.00234603179
room_FLOOR
    y+ : min = 0.0803683359, max = 6.54776956, average = 2.34262965
    y : min = 0.000139430812, max = 0.00249999971, average = 0.00161917022
room_CEILING
    y+ : min = 0.306406083, max = 6.53363405, average = 2.64036386
    y : min = 0.000647142072, max = 0.00249999973, average = 0.00231379284
room_BACK
    y+ : min = 0.145550894, max = 51.800577, average = 4.09236001
    y : min = 0.000872666798, max = 0.00549005797, average = 0.00123342378
room_SIDE1
    y+ : min = 0.186634414, max = 7.67196877, average = 3.09359255
    y : min = 0.000544684643, max = 0.0025, average = 0.00234602486
manikin
    y+ : min = 0.0224549661, max = 7.76665161, average = 0.822310078
    y : min = 4.97449872e-05, max = 0.00255854003, average = 0.000292020944

forceCoeffs forceCoeffs1 output:
    Cm    = -4492.73502
    Cd    = -98.6930332
    Cl    = -8650.59985
    Cl(f) = -8818.03495
    Cl(r) = 167.435094

Time = 7003

DILUPBiCG:  Solving for Ux, Initial residual = 0.000206966113, Final residual = 1.94376437e-05, No Iterations 1
DILUPBiCG:  Solving for Uy, Initial residual = 9.92696703e-05, Final residual = 5.54674052e-06, No Iterations 1
DILUPBiCG:  Solving for Uz, Initial residual = 0.000208641208, Final residual = 1.50018564e-05, No Iterations 1
DILUPBiCG:  Solving for h, Initial residual = 4.34813892e-05, Final residual = 9.65224516e-07, No Iterations 1
GAMG:  Solving for p_rgh, Initial residual = 0.00241511189, Final residual = 1.28780727e-05, No Iterations 2
time step continuity errors : sum local = 1.1491777e-05, global = 1.08954492e-07, cumulative = 4.02169294e-07
rho max/min : 1.21151907 1.14723618
smoothSolver:  Solving for omega, Initial residual = 4.53788533e-06, Final residual = 1.69005687e-07, No Iterations 3
smoothSolver:  Solving for k, Initial residual = 0.000970054315, Final residual = 8.99069432e-05, No Iterations 2
ExecutionTime = 37.91 s  ClockTime = 38 s

wallHeatFlux wallHeatFlux output:

Wall heat fluxes [W]
room_SIDE2
    convective: -0.0190706387
    radiative:  -0
    total:      -0.0190706387
    Temperature : min = 293.062137, max = 293.814477, average = 293.549803
room_FLOOR
    convective: 2.98728361
    radiative:  -0
    total:      2.98728361
    Temperature : min = 293.011952, max = 301.383859, average = 293.629285
room_CEILING
    convective: -1.44704695
    radiative:  -0
    total:      -1.44704695
    Temperature : min = 293.568852, max = 293.807015, average = 293.639901
room_BACK
    convective: -0.253803416
    radiative:  -0
    total:      -0.253803416
    Temperature : min = 293.020195, max = 293.819817, average = 293.566086
room_SIDE1
    convective: -0.109220774
    radiative:  -0
    total:      -0.109220774
    Temperature : min = 293.061805, max = 293.823874, average = 293.552405
manikin
    convective: 128.761909
    radiative:  -0
    total:      128.761909
    Temperature : min = 307.15, max = 307.15, average = 307.15

yPlusRAS yplusRAS output:
    patch room_SIDE2 y+ : min = 0.20323846, max = 7.81841128, average = 3.10281731
    patch room_FLOOR y+ : min = 0.0803640397, max = 6.54776957, average = 2.34251304
    patch room_CEILING y+ : min = 0.311076336, max = 6.53363405, average = 2.64024178
    patch room_BACK y+ : min = 0.138147002, max = 51.7990485, average = 4.09251556
    patch room_SIDE1 y+ : min = 0.183820756, max = 7.67840471, average = 3.09347174
    patch manikin y+ : min = 0.0227627287, max = 7.766635, average = 0.822310689

yPlusRASLowRe yplusRASLowRe output:
room_SIDE2
    y+ : min = 0.20323846, max = 7.81841128, average = 3.10281731
    y : min = 0.000544684214, max = 0.00250000001, average = 0.00234603179
room_FLOOR
    y+ : min = 0.0803640397, max = 6.54776957, average = 2.34251304
    y : min = 0.000139430812, max = 0.00249999971, average = 0.00161917022
room_CEILING
    y+ : min = 0.311076336, max = 6.53363405, average = 2.64024178
    y : min = 0.000647142072, max = 0.00249999973, average = 0.00231379284
room_BACK
    y+ : min = 0.138147002, max = 51.7990485, average = 4.09251556
    y : min = 0.000872666798, max = 0.00549005797, average = 0.00123342378
room_SIDE1
    y+ : min = 0.183820756, max = 7.67840471, average = 3.09347174
    y : min = 0.000544684643, max = 0.0025, average = 0.00234602486
manikin
    y+ : min = 0.0227627287, max = 7.766635, average = 0.822310689
    y : min = 4.97449872e-05, max = 0.00255854003, average = 0.000292020944

forceCoeffs forceCoeffs1 output:
    Cm    = -4492.73488
    Cd    = -98.6931335
    Cl    = -8650.59985
    Cl(f) = -8818.0348
    Cl(r) = 167.434958

Time = 7004

DILUPBiCG:  Solving for Ux, Initial residual = 0.000206126184, Final residual = 1.50947939e-05, No Iterations 1
DILUPBiCG:  Solving for Uy, Initial residual = 9.91624994e-05, Final residual = 6.8145421e-06, No Iterations 1
DILUPBiCG:  Solving for Uz, Initial residual = 0.00020896662, Final residual = 1.54484725e-05, No Iterations 1
DILUPBiCG:  Solving for h, Initial residual = 4.35156383e-05, Final residual = 9.61189587e-07, No Iterations 1
GAMG:  Solving for p_rgh, Initial residual = 0.00241288077, Final residual = 1.30143943e-05, No Iterations 2
time step continuity errors : sum local = 1.16137417e-05, global = 8.42573442e-08, cumulative = 4.86426638e-07
rho max/min : 1.2115182 1.14723618
smoothSolver:  Solving for omega, Initial residual = 4.53265088e-06, Final residual = 1.68570726e-07, No Iterations 3
smoothSolver:  Solving for k, Initial residual = 0.000975034368, Final residual = 8.97536068e-05, No Iterations 2
ExecutionTime = 50.08 s  ClockTime = 50 s

wallHeatFlux wallHeatFlux output:

Wall heat fluxes [W]
room_SIDE2
    convective: -0.0196994785
    radiative:  -0
    total:      -0.0196994785
    Temperature : min = 293.062137, max = 293.814477, average = 293.549822
room_FLOOR
    convective: 2.98709128
    radiative:  -0
    total:      2.98709128
    Temperature : min = 293.011957, max = 301.383874, average = 293.629296
room_CEILING
    convective: -1.44711386
    radiative:  -0
    total:      -1.44711386
    Temperature : min = 293.568854, max = 293.807015, average = 293.639904
room_BACK
    convective: -0.254126241
    radiative:  -0
    total:      -0.254126241
    Temperature : min = 293.020202, max = 293.819758, average = 293.566105
room_SIDE1
    convective: -0.108986812
    radiative:  -0
    total:      -0.108986812
    Temperature : min = 293.061805, max = 293.823874, average = 293.552401
manikin
    convective: 128.762158
    radiative:  -0
    total:      128.762158
    Temperature : min = 307.15, max = 307.15, average = 307.15

yPlusRAS yplusRAS output:
    patch room_SIDE2 y+ : min = 0.200099545, max = 7.81470318, average = 3.10239529
    patch room_FLOOR y+ : min = 0.0803598878, max = 6.54776957, average = 2.34238797
    patch room_CEILING y+ : min = 0.311620905, max = 6.53363404, average = 2.64013131
    patch room_BACK y+ : min = 0.146863465, max = 51.7975161, average = 4.0926626
    patch room_SIDE1 y+ : min = 0.181047293, max = 7.68533649, average = 3.09335461
    patch manikin y+ : min = 0.0230631884, max = 7.76661984, average = 0.822305795

yPlusRASLowRe yplusRASLowRe output:
room_SIDE2
    y+ : min = 0.200099545, max = 7.81470318, average = 3.10239529
    y : min = 0.000544684214, max = 0.00250000001, average = 0.00234603179
room_FLOOR
    y+ : min = 0.0803598878, max = 6.54776957, average = 2.34238797
    y : min = 0.000139430812, max = 0.00249999971, average = 0.00161917022
room_CEILING
    y+ : min = 0.311620905, max = 6.53363404, average = 2.64013131
    y : min = 0.000647142072, max = 0.00249999973, average = 0.00231379284
room_BACK
    y+ : min = 0.146863465, max = 51.7975161, average = 4.0926626
    y : min = 0.000872666798, max = 0.00549005797, average = 0.00123342378
room_SIDE1
    y+ : min = 0.181047293, max = 7.68533649, average = 3.09335461
    y : min = 0.000544684643, max = 0.0025, average = 0.00234602486
manikin
    y+ : min = 0.0230631884, max = 7.76661984, average = 0.822305795
    y : min = 4.97449872e-05, max = 0.00255854003, average = 0.000292020944

forceCoeffs forceCoeffs1 output:
    Cm    = -4492.73474
    Cd    = -98.6932045
    Cl    = -8650.59984
    Cl(f) = -8818.03467
    Cl(r) = 167.434823

Time = 7005

DILUPBiCG:  Solving for Ux, Initial residual = 0.000205919985, Final residual = 1.24936992e-05, No Iterations 1
DILUPBiCG:  Solving for Uy, Initial residual = 9.88061246e-05, Final residual = 9.24892969e-06, No Iterations 1
DILUPBiCG:  Solving for Uz, Initial residual = 0.000209126247, Final residual = 1.61720936e-05, No Iterations 1
DILUPBiCG:  Solving for h, Initial residual = 4.35419529e-05, Final residual = 9.58264787e-07, No Iterations 1
GAMG:  Solving for p_rgh, Initial residual = 0.00240939703, Final residual = 1.31931291e-05, No Iterations 2
time step continuity errors : sum local = 1.17735084e-05, global = 6.4940971e-08, cumulative = 5.51367609e-07
rho max/min : 1.21151726 1.14723618
smoothSolver:  Solving for omega, Initial residual = 4.54406887e-06, Final residual = 1.68335157e-07, No Iterations 3
smoothSolver:  Solving for k, Initial residual = 0.000978840876, Final residual = 8.94502461e-05, No Iterations 2
ExecutionTime = 61.91 s  ClockTime = 62 s

wallHeatFlux wallHeatFlux output:

Wall heat fluxes [W]
room_SIDE2
    convective: -0.0203272643
    radiative:  -0
    total:      -0.0203272643
    Temperature : min = 293.062137, max = 293.814477, average = 293.54984
room_FLOOR
    convective: 2.98692845
    radiative:  -0
    total:      2.98692845
    Temperature : min = 293.011962, max = 301.383889, average = 293.629306
room_CEILING
    convective: -1.44718104
    radiative:  -0
    total:      -1.44718104
    Temperature : min = 293.568694, max = 293.807015, average = 293.639906
room_BACK
    convective: -0.254424112
    radiative:  -0
    total:      -0.254424112
    Temperature : min = 293.020209, max = 293.819701, average = 293.566124
room_SIDE1
    convective: -0.108752948
    radiative:  -0
    total:      -0.108752948
    Temperature : min = 293.061805, max = 293.823874, average = 293.552396
manikin
    convective: 128.762615
    radiative:  -0
    total:      128.762615
    Temperature : min = 307.15, max = 307.15, average = 307.15

yPlusRAS yplusRAS output:
    patch room_SIDE2 y+ : min = 0.200910741, max = 7.81083151, average = 3.10194081
    patch room_FLOOR y+ : min = 0.0803557807, max = 6.54776958, average = 2.34224545
    patch room_CEILING y+ : min = 0.309738053, max = 6.53363403, average = 2.64003651
    patch room_BACK y+ : min = 0.165731363, max = 51.7959696, average = 4.09280274
    patch room_SIDE1 y+ : min = 0.178404057, max = 7.69275974, average = 3.09324112
    patch manikin y+ : min = 0.023354111, max = 7.76660679, average = 0.82229565

yPlusRASLowRe yplusRASLowRe output:
room_SIDE2
    y+ : min = 0.200910741, max = 7.81083151, average = 3.10194081
    y : min = 0.000544684214, max = 0.00250000001, average = 0.00234603179
room_FLOOR
    y+ : min = 0.0803557807, max = 6.54776958, average = 2.34224545
    y : min = 0.000139430812, max = 0.00249999971, average = 0.00161917022
room_CEILING
    y+ : min = 0.309738053, max = 6.53363403, average = 2.64003651
    y : min = 0.000647142072, max = 0.00249999973, average = 0.00231379284
room_BACK
    y+ : min = 0.165731363, max = 51.7959696, average = 4.09280274
    y : min = 0.000872666798, max = 0.00549005797, average = 0.00123342378
room_SIDE1
    y+ : min = 0.178404057, max = 7.69275974, average = 3.09324112
    y : min = 0.000544684643, max = 0.0025, average = 0.00234602486
manikin
    y+ : min = 0.023354111, max = 7.76660679, average = 0.82229565
    y : min = 4.97449872e-05, max = 0.00255854003, average = 0.000292020944

forceCoeffs forceCoeffs1 output:
    Cm    = -4492.73461
    Cd    = -98.6932611
    Cl    = -8650.59984
    Cl(f) = -8818.03453
    Cl(r) = 167.434688

Time = 7006

DILUPBiCG:  Solving for Ux, Initial residual = 0.00020617248, Final residual = 1.07872861e-05, No Iterations 1
DILUPBiCG:  Solving for Uy, Initial residual = 9.82059901e-05, Final residual = 4.93603868e-08, No Iterations 2
DILUPBiCG:  Solving for Uz, Initial residual = 0.000209211109, Final residual = 1.64644693e-05, No Iterations 1
DILUPBiCG:  Solving for h, Initial residual = 4.35614411e-05, Final residual = 9.55966058e-07, No Iterations 1
GAMG:  Solving for p_rgh, Initial residual = 0.00240021321, Final residual = 1.28887524e-05, No Iterations 2
time step continuity errors : sum local = 1.15023414e-05, global = 5.1254765e-08, cumulative = 6.02622374e-07
rho max/min : 1.21151633 1.14723618
smoothSolver:  Solving for omega, Initial residual = 4.52854323e-06, Final residual = 1.67204721e-07, No Iterations 3
smoothSolver:  Solving for k, Initial residual = 0.000980043651, Final residual = 8.88883903e-05, No Iterations 2
ExecutionTime = 73.64 s  ClockTime = 74 s

wallHeatFlux wallHeatFlux output:

Wall heat fluxes [W]
room_SIDE2
    convective: -0.0209504575
    radiative:  -0
    total:      -0.0209504575
    Temperature : min = 293.062137, max = 293.814477, average = 293.549858
room_FLOOR
    convective: 2.98678777
    radiative:  -0
    total:      2.98678777
    Temperature : min = 293.011967, max = 301.383904, average = 293.629314
room_CEILING
    convective: -1.44724633
    radiative:  -0
    total:      -1.44724633
    Temperature : min = 293.568001, max = 293.807015, average = 293.639909
room_BACK
    convective: -0.254722402
    radiative:  -0
    total:      -0.254722402
    Temperature : min = 293.020218, max = 293.81964, average = 293.566143
room_SIDE1
    convective: -0.108523508
    radiative:  -0
    total:      -0.108523508
    Temperature : min = 293.061805, max = 293.823874, average = 293.552392
manikin
    convective: 128.763175
    radiative:  -0
    total:      128.763175
    Temperature : min = 307.15, max = 307.15, average = 307.15

yPlusRAS yplusRAS output:
    patch room_SIDE2 y+ : min = 0.205337555, max = 7.80691451, average = 3.10146612
    patch room_FLOOR y+ : min = 0.0803516544, max = 6.54776959, average = 2.34211635
    patch room_CEILING y+ : min = 0.305756787, max = 6.53363401, average = 2.63992878
    patch room_BACK y+ : min = 0.182607704, max = 51.7943106, average = 4.09294018
    patch room_SIDE1 y+ : min = 0.175948082, max = 7.70050001, average = 3.09312341
    patch manikin y+ : min = 0.0236305935, max = 7.76659732, average = 0.822286981

yPlusRASLowRe yplusRASLowRe output:
room_SIDE2
    y+ : min = 0.205337555, max = 7.80691451, average = 3.10146612
    y : min = 0.000544684214, max = 0.00250000001, average = 0.00234603179
room_FLOOR
    y+ : min = 0.0803516544, max = 6.54776959, average = 2.34211635
    y : min = 0.000139430812, max = 0.00249999971, average = 0.00161917022
room_CEILING
    y+ : min = 0.305756787, max = 6.53363401, average = 2.63992878
    y : min = 0.000647142072, max = 0.00249999973, average = 0.00231379284
room_BACK
    y+ : min = 0.182607704, max = 51.7943106, average = 4.09294018
    y : min = 0.000872666798, max = 0.00549005797, average = 0.00123342378
room_SIDE1
    y+ : min = 0.175948082, max = 7.70050001, average = 3.09312341
    y : min = 0.000544684643, max = 0.0025, average = 0.00234602486
manikin
    y+ : min = 0.0236305935, max = 7.76659732, average = 0.822286981
    y : min = 4.97449872e-05, max = 0.00255854003, average = 0.000292020944

forceCoeffs forceCoeffs1 output:
    Cm    = -4492.73447
    Cd    = -98.693317
    Cl    = -8650.59983
    Cl(f) = -8818.03439
    Cl(r) = 167.434552

Time = 7007

DILUPBiCG:  Solving for Ux, Initial residual = 0.000205796681, Final residual = 9.47402478e-06, No Iterations 1
DILUPBiCG:  Solving for Uy, Initial residual = 9.817497e-05, Final residual = 5.4912924e-08, No Iterations 2
DILUPBiCG:  Solving for Uz, Initial residual = 0.000208840448, Final residual = 1.66052669e-05, No Iterations 1
DILUPBiCG:  Solving for h, Initial residual = 4.35698813e-05, Final residual = 9.54544007e-07, No Iterations 1
GAMG:  Solving for p_rgh, Initial residual = 0.00239497997, Final residual = 1.2875374e-05, No Iterations 2
time step continuity errors : sum local = 1.1490895e-05, global = 4.46679699e-08, cumulative = 6.47290344e-07
rho max/min : 1.21151546 1.14723618
smoothSolver:  Solving for omega, Initial residual = 4.52596057e-06, Final residual = 1.6608905e-07, No Iterations 3
smoothSolver:  Solving for k, Initial residual = 0.000979869399, Final residual = 8.82145848e-05, No Iterations 2
ExecutionTime = 85.12 s  ClockTime = 85 s

wallHeatFlux wallHeatFlux output:

Wall heat fluxes [W]
room_SIDE2
    convective: -0.0215682532
    radiative:  -0
    total:      -0.0215682532
    Temperature : min = 293.062137, max = 293.814477, average = 293.549876
room_FLOOR
    convective: 2.98666226
    radiative:  -0
    total:      2.98666226
    Temperature : min = 293.011972, max = 301.383921, average = 293.629322
room_CEILING
    convective: -1.44731071
    radiative:  -0
    total:      -1.44731071
    Temperature : min = 293.567345, max = 293.807015, average = 293.639912
room_BACK
    convective: -0.255043219
    radiative:  -0
    total:      -0.255043219
    Temperature : min = 293.020228, max = 293.819576, average = 293.566162
room_SIDE1
    convective: -0.1083034
    radiative:  -0
    total:      -0.1083034
    Temperature : min = 293.061805, max = 293.823874, average = 293.552387
manikin
    convective: 128.763794
    radiative:  -0
    total:      128.763794
    Temperature : min = 307.15, max = 307.15, average = 307.15

yPlusRAS yplusRAS output:
    patch room_SIDE2 y+ : min = 0.212536105, max = 7.80286845, average = 3.10096911
    patch room_FLOOR y+ : min = 0.08034758, max = 6.54776961, average = 2.34196663
    patch room_CEILING y+ : min = 0.305734956, max = 6.533634, average = 2.63977279
    patch room_BACK y+ : min = 0.181211192, max = 51.7925839, average = 4.09307441
    patch room_SIDE1 y+ : min = 0.173786311, max = 7.70865897, average = 3.09300407
    patch manikin y+ : min = 0.0239001587, max = 7.76658934, average = 0.822283946

yPlusRASLowRe yplusRASLowRe output:
room_SIDE2
    y+ : min = 0.212536105, max = 7.80286845, average = 3.10096911
    y : min = 0.000544684214, max = 0.00250000001, average = 0.00234603179
room_FLOOR
    y+ : min = 0.08034758, max = 6.54776961, average = 2.34196663
    y : min = 0.000139430812, max = 0.00249999971, average = 0.00161917022
room_CEILING
    y+ : min = 0.305734956, max = 6.533634, average = 2.63977279
    y : min = 0.000647142072, max = 0.00249999973, average = 0.00231379284
room_BACK
    y+ : min = 0.181211192, max = 51.7925839, average = 4.09307441
    y : min = 0.000872666798, max = 0.00549005797, average = 0.00123342378
room_SIDE1
    y+ : min = 0.173786311, max = 7.70865897, average = 3.09300407
    y : min = 0.000544684643, max = 0.0025, average = 0.00234602486
manikin
    y+ : min = 0.0239001587, max = 7.76658934, average = 0.822283946
    y : min = 4.97449872e-05, max = 0.00255854003, average = 0.000292020944

forceCoeffs forceCoeffs1 output:
    Cm    = -4492.73432
    Cd    = -98.6933865
    Cl    = -8650.59981
    Cl(f) = -8818.03423
    Cl(r) = 167.434415

Time = 7008

DILUPBiCG:  Solving for Ux, Initial residual = 0.000205403312, Final residual = 8.40296846e-06, No Iterations 1
DILUPBiCG:  Solving for Uy, Initial residual = 9.80568689e-05, Final residual = 6.11692479e-08, No Iterations 2
DILUPBiCG:  Solving for Uz, Initial residual = 0.000208544466, Final residual = 1.6955954e-05, No Iterations 1
DILUPBiCG:  Solving for h, Initial residual = 4.35676656e-05, Final residual = 9.53559637e-07, No Iterations 1
GAMG:  Solving for p_rgh, Initial residual = 0.00239311441, Final residual = 1.29756423e-05, No Iterations 2
time step continuity errors : sum local = 1.15808338e-05, global = 4.36199122e-08, cumulative = 6.90910256e-07
rho max/min : 1.2115147 1.14723618
smoothSolver:  Solving for omega, Initial residual = 4.49984115e-06, Final residual = 4.49694318e-07, No Iterations 2
smoothSolver:  Solving for k, Initial residual = 0.000976165995, Final residual = 8.73089546e-05, No Iterations 2
ExecutionTime = 96.84 s  ClockTime = 97 s

wallHeatFlux wallHeatFlux output:

Wall heat fluxes [W]
room_SIDE2
    convective: -0.0221795871
    radiative:  -0
    total:      -0.0221795871
    Temperature : min = 293.062137, max = 293.814477, average = 293.549893
room_FLOOR
    convective: 2.98654176
    radiative:  -0
    total:      2.98654176
    Temperature : min = 293.011978, max = 301.383937, average = 293.629329
room_CEILING
    convective: -1.44737483
    radiative:  -0
    total:      -1.44737483
    Temperature : min = 293.566743, max = 293.807015, average = 293.639914
room_BACK
    convective: -0.255307188
    radiative:  -0
    total:      -0.255307188
    Temperature : min = 293.020239, max = 293.819522, average = 293.56618
room_SIDE1
    convective: -0.108096416
    radiative:  -0
    total:      -0.108096416
    Temperature : min = 293.061805, max = 293.823874, average = 293.552382
manikin
    convective: 128.7645
    radiative:  -0
    total:      128.7645
    Temperature : min = 307.15, max = 307.15, average = 307.15

yPlusRAS yplusRAS output:
    patch room_SIDE2 y+ : min = 0.221524158, max = 7.80159925, average = 3.10047558
    patch room_FLOOR y+ : min = 0.0803434351, max = 6.54776964, average = 2.34173985
    patch room_CEILING y+ : min = 0.303821427, max = 6.53363398, average = 2.63955547
    patch room_BACK y+ : min = 0.179968739, max = 51.7908123, average = 4.09320236
    patch room_SIDE1 y+ : min = 0.171895419, max = 7.71719987, average = 3.09288205
    patch manikin y+ : min = 0.0226118223, max = 7.76658287, average = 0.822275103

yPlusRASLowRe yplusRASLowRe output:
room_SIDE2
    y+ : min = 0.221524158, max = 7.80159925, average = 3.10047558
    y : min = 0.000544684214, max = 0.00250000001, average = 0.00234603179
room_FLOOR
    y+ : min = 0.0803434351, max = 6.54776964, average = 2.34173985
    y : min = 0.000139430812, max = 0.00249999971, average = 0.00161917022
room_CEILING
    y+ : min = 0.303821427, max = 6.53363398, average = 2.63955547
    y : min = 0.000647142072, max = 0.00249999973, average = 0.00231379284
room_BACK
    y+ : min = 0.179968739, max = 51.7908123, average = 4.09320236
    y : min = 0.000872666798, max = 0.00549005797, average = 0.00123342378
room_SIDE1
    y+ : min = 0.171895419, max = 7.71719987, average = 3.09288205
    y : min = 0.000544684643, max = 0.0025, average = 0.00234602486
manikin
    y+ : min = 0.0226118223, max = 7.76658287, average = 0.822275103
    y : min = 4.97449872e-05, max = 0.00255854003, average = 0.000292020944

forceCoeffs forceCoeffs1 output:
    Cm    = -4492.73418
    Cd    = -98.6934695
    Cl    = -8650.59979
    Cl(f) = -8818.03408
    Cl(r) = 167.434286

Time = 7009

DILUPBiCG:  Solving for Ux, Initial residual = 0.000205132761, Final residual = 7.50580367e-06, No Iterations 1
DILUPBiCG:  Solving for Uy, Initial residual = 9.77270787e-05, Final residual = 6.51542263e-08, No Iterations 2
DILUPBiCG:  Solving for Uz, Initial residual = 0.00020835614, Final residual = 1.7585532e-05, No Iterations 1
DILUPBiCG:  Solving for h, Initial residual = 4.35673772e-05, Final residual = 9.52671458e-07, No Iterations 1
GAMG:  Solving for p_rgh, Initial residual = 0.00239044158, Final residual = 1.30338662e-05, No Iterations 2
time step continuity errors : sum local = 1.16332391e-05, global = 4.57207496e-08, cumulative = 7.36631006e-07
rho max/min : 1.2115141 1.14723618
smoothSolver:  Solving for omega, Initial residual = 4.59435549e-06, Final residual = 1.69487119e-07, No Iterations 3
smoothSolver:  Solving for k, Initial residual = 0.000971881755, Final residual = 8.61823367e-05, No Iterations 2
ExecutionTime = 108.21 s  ClockTime = 109 s

wallHeatFlux wallHeatFlux output:

Wall heat fluxes [W]
room_SIDE2
    convective: -0.0227841629
    radiative:  -0
    total:      -0.0227841629
    Temperature : min = 293.062137, max = 293.814477, average = 293.549911
room_FLOOR
    convective: 2.98641827
    radiative:  -0
    total:      2.98641827
    Temperature : min = 293.011984, max = 301.383954, average = 293.629336
room_CEILING
    convective: -1.44743872
    radiative:  -0
    total:      -1.44743872
    Temperature : min = 293.566219, max = 293.807015, average = 293.639917
room_BACK
    convective: -0.255597007
    radiative:  -0
    total:      -0.255597007
    Temperature : min = 293.02025, max = 293.819528, average = 293.566198
room_SIDE1
    convective: -0.107905052
    radiative:  -0
    total:      -0.107905052
    Temperature : min = 293.061805, max = 293.823874, average = 293.552378
manikin
    convective: 128.765434
    radiative:  -0
    total:      128.765434
    Temperature : min = 307.15, max = 307.15, average = 307.15

yPlusRAS yplusRAS output:
    patch room_SIDE2 y+ : min = 0.190609838, max = 7.80053769, average = 3.10001001
    patch room_FLOOR y+ : min = 0.0802453316, max = 6.54776968, average = 2.34142813
    patch room_CEILING y+ : min = 0.29802599, max = 6.53363397, average = 2.63929281
    patch room_BACK y+ : min = 0.179465419, max = 51.7890048, average = 4.09332377
    patch room_SIDE1 y+ : min = 0.170198107, max = 7.72609361, average = 3.0927577
    patch manikin y+ : min = 0.0210892286, max = 7.76657942, average = 0.822261122

yPlusRASLowRe yplusRASLowRe output:
room_SIDE2
    y+ : min = 0.190609838, max = 7.80053769, average = 3.10001001
    y : min = 0.000544684214, max = 0.00250000001, average = 0.00234603179
room_FLOOR
    y+ : min = 0.0802453316, max = 6.54776968, average = 2.34142813
    y : min = 0.000139430812, max = 0.00249999971, average = 0.00161917022
room_CEILING
    y+ : min = 0.29802599, max = 6.53363397, average = 2.63929281
    y : min = 0.000647142072, max = 0.00249999973, average = 0.00231379284
room_BACK
    y+ : min = 0.179465419, max = 51.7890048, average = 4.09332377
    y : min = 0.000872666798, max = 0.00549005797, average = 0.00123342378
room_SIDE1
    y+ : min = 0.170198107, max = 7.72609361, average = 3.0927577
    y : min = 0.000544684643, max = 0.0025, average = 0.00234602486
manikin
    y+ : min = 0.0210892286, max = 7.76657942, average = 0.822261122
    y : min = 4.97449872e-05, max = 0.00255854003, average = 0.000292020944

forceCoeffs forceCoeffs1 output:
    Cm    = -4492.73405
    Cd    = -98.693542
    Cl    = -8650.59977
    Cl(f) = -8818.03394
    Cl(r) = 167.434163

Time = 7010

DILUPBiCG:  Solving for Ux, Initial residual = 0.00020490927, Final residual = 6.78026225e-06, No Iterations 1
DILUPBiCG:  Solving for Uy, Initial residual = 9.73100206e-05, Final residual = 6.70282406e-08, No Iterations 2
DILUPBiCG:  Solving for Uz, Initial residual = 0.000208212016, Final residual = 1.85925603e-05, No Iterations 1
DILUPBiCG:  Solving for h, Initial residual = 4.35635028e-05, Final residual = 9.52105044e-07, No Iterations 1
GAMG:  Solving for p_rgh, Initial residual = 0.00238901848, Final residual = 1.30295848e-05, No Iterations 2
time step continuity errors : sum local = 1.16299654e-05, global = 4.90386507e-08, cumulative = 7.85669657e-07
rho max/min : 1.21151369 1.14723618
smoothSolver:  Solving for omega, Initial residual = 4.51904982e-06, Final residual = 4.51838201e-07, No Iterations 2
smoothSolver:  Solving for k, Initial residual = 0.000964768346, Final residual = 8.51420728e-05, No Iterations 2
ExecutionTime = 119.68 s  ClockTime = 120 s

wallHeatFlux wallHeatFlux output:

Wall heat fluxes [W]
room_SIDE2
    convective: -0.0233828301
    radiative:  -0
    total:      -0.0233828301
    Temperature : min = 293.062137, max = 293.814477, average = 293.549928
room_FLOOR
    convective: 2.98628189
    radiative:  -0
    total:      2.98628189
    Temperature : min = 293.01199, max = 301.383972, average = 293.629343
room_CEILING
    convective: -1.44750269
    radiative:  -0
    total:      -1.44750269
    Temperature : min = 293.565792, max = 293.807015, average = 293.639919
room_BACK
    convective: -0.255883296
    radiative:  -0
    total:      -0.255883296
    Temperature : min = 293.020263, max = 293.819534, average = 293.566216
room_SIDE1
    convective: -0.107732441
    radiative:  -0
    total:      -0.107732441
    Temperature : min = 293.061805, max = 293.823874, average = 293.552374
manikin
    convective: 128.766307
    radiative:  -0
    total:      128.766307
    Temperature : min = 307.15, max = 307.15, average = 307.15

yPlusRAS yplusRAS output:
    patch room_SIDE2 y+ : min = 0.173567084, max = 7.79860878, average = 3.09954579
    patch room_FLOOR y+ : min = 0.0801317164, max = 6.54776972, average = 2.34104996
    patch room_CEILING y+ : min = 0.28893294, max = 6.53363395, average = 2.6390219
    patch room_BACK y+ : min = 0.180014103, max = 51.7871597, average = 4.09344767
    patch room_SIDE1 y+ : min = 0.168948834, max = 7.73531362, average = 3.0926331
    patch manikin y+ : min = 0.0199508435, max = 7.76657853, average = 0.822247885

yPlusRASLowRe yplusRASLowRe output:
room_SIDE2
    y+ : min = 0.173567084, max = 7.79860878, average = 3.09954579
    y : min = 0.000544684214, max = 0.00250000001, average = 0.00234603179
room_FLOOR
    y+ : min = 0.0801317164, max = 6.54776972, average = 2.34104996
    y : min = 0.000139430812, max = 0.00249999971, average = 0.00161917022
room_CEILING
    y+ : min = 0.28893294, max = 6.53363395, average = 2.6390219
    y : min = 0.000647142072, max = 0.00249999973, average = 0.00231379284
room_BACK
    y+ : min = 0.180014103, max = 51.7871597, average = 4.09344767
    y : min = 0.000872666798, max = 0.00549005797, average = 0.00123342378
room_SIDE1
    y+ : min = 0.168948834, max = 7.73531362, average = 3.0926331
    y : min = 0.000544684643, max = 0.0025, average = 0.00234602486
manikin
    y+ : min = 0.0199508435, max = 7.76657853, average = 0.822247885
    y : min = 4.97449872e-05, max = 0.00255854003, average = 0.000292020944

forceCoeffs forceCoeffs1 output:
    Cm    = -4492.73392
    Cd    = -98.6936083
    Cl    = -8650.59976
    Cl(f) = -8818.0338
    Cl(r) = 167.434045

Time = 7011

DILUPBiCG:  Solving for Ux, Initial residual = 0.000204701368, Final residual = 6.14537086e-06, No Iterations 1
DILUPBiCG:  Solving for Uy, Initial residual = 9.69122457e-05, Final residual = 6.81033374e-08, No Iterations 2
DILUPBiCG:  Solving for Uz, Initial residual = 0.00020799236, Final residual = 2.01685789e-05, No Iterations 1
DILUPBiCG:  Solving for h, Initial residual = 4.35601126e-05, Final residual = 9.51856006e-07, No Iterations 1
GAMG:  Solving for p_rgh, Initial residual = 0.00238623084, Final residual = 1.29160137e-05, No Iterations 2
time step continuity errors : sum local = 1.15292375e-05, global = 5.19342182e-08, cumulative = 8.37603875e-07
rho max/min : 1.2115135 1.14723617
smoothSolver:  Solving for omega, Initial residual = 4.59369469e-06, Final residual = 1.6951587e-07, No Iterations 3
smoothSolver:  Solving for k, Initial residual = 0.000956842854, Final residual = 8.38104125e-05, No Iterations 2
ExecutionTime = 131.65 s  ClockTime = 132 s

wallHeatFlux wallHeatFlux output:

Wall heat fluxes [W]
room_SIDE2
    convective: -0.0239726632
    radiative:  -0
    total:      -0.0239726632
    Temperature : min = 293.062137, max = 293.814477, average = 293.549945
room_FLOOR
    convective: 2.98612406
    radiative:  -0
    total:      2.98612406
    Temperature : min = 293.011996, max = 301.38399, average = 293.62935
room_CEILING
    convective: -1.44756834
    radiative:  -0
    total:      -1.44756834
    Temperature : min = 293.565478, max = 293.807015, average = 293.639922
room_BACK
    convective: -0.256167783
    radiative:  -0
    total:      -0.256167783
    Temperature : min = 293.020277, max = 293.819543, average = 293.566234
room_SIDE1
    convective: -0.107580664
    radiative:  -0
    total:      -0.107580664
    Temperature : min = 293.061805, max = 293.823874, average = 293.55237
manikin
    convective: 128.767246
    radiative:  -0
    total:      128.767246
    Temperature : min = 307.15, max = 307.15, average = 307.15

yPlusRAS yplusRAS output:
    patch room_SIDE2 y+ : min = 0.188358517, max = 7.79583018, average = 3.09907432
    patch room_FLOOR y+ : min = 0.0800184046, max = 6.54776976, average = 2.34066839
    patch room_CEILING y+ : min = 0.274566752, max = 6.53363392, average = 2.63875516
    patch room_BACK y+ : min = 0.181566776, max = 51.7852774, average = 4.09356006
    patch room_SIDE1 y+ : min = 0.168337337, max = 7.74482427, average = 3.09251726
    patch manikin y+ : min = 0.019575854, max = 7.76657823, average = 0.82224566

yPlusRASLowRe yplusRASLowRe output:
room_SIDE2
    y+ : min = 0.188358517, max = 7.79583018, average = 3.09907432
    y : min = 0.000544684214, max = 0.00250000001, average = 0.00234603179
room_FLOOR
    y+ : min = 0.0800184046, max = 6.54776976, average = 2.34066839
    y : min = 0.000139430812, max = 0.00249999971, average = 0.00161917022
room_CEILING
    y+ : min = 0.274566752, max = 6.53363392, average = 2.63875516
    y : min = 0.000647142072, max = 0.00249999973, average = 0.00231379284
room_BACK
    y+ : min = 0.181566776, max = 51.7852774, average = 4.09356006
    y : min = 0.000872666798, max = 0.00549005797, average = 0.00123342378
room_SIDE1
    y+ : min = 0.168337337, max = 7.74482427, average = 3.09251726
    y : min = 0.000544684643, max = 0.0025, average = 0.00234602486
manikin
    y+ : min = 0.019575854, max = 7.76657823, average = 0.82224566
    y : min = 4.97449872e-05, max = 0.00255854003, average = 0.000292020944

forceCoeffs forceCoeffs1 output:
    Cm    = -4492.7338
    Cd    = -98.6936734
    Cl    = -8650.59973
    Cl(f) = -8818.03367
    Cl(r) = 167.433938

Time = 7012

DILUPBiCG:  Solving for Ux, Initial residual = 0.000204446486, Final residual = 5.54981361e-06, No Iterations 1
DILUPBiCG:  Solving for Uy, Initial residual = 9.65554024e-05, Final residual = 6.80365986e-08, No Iterations 2
DILUPBiCG:  Solving for Uz, Initial residual = 0.000207709828, Final residual = 6.89910772e-08, No Iterations 2
DILUPBiCG:  Solving for h, Initial residual = 4.35429101e-05, Final residual = 9.51108907e-07, No Iterations 1
GAMG:  Solving for p_rgh, Initial residual = 0.00238744371, Final residual = 1.2827934e-05, No Iterations 2
time step continuity errors : sum local = 1.14511023e-05, global = 5.27595281e-08, cumulative = 8.90363403e-07
rho max/min : 1.21151353 1.14723617
smoothSolver:  Solving for omega, Initial residual = 4.51356905e-06, Final residual = 4.49601243e-07, No Iterations 2
smoothSolver:  Solving for k, Initial residual = 0.000946651437, Final residual = 8.25710855e-05, No Iterations 2
ExecutionTime = 143.22 s  ClockTime = 144 s

wallHeatFlux wallHeatFlux output:

Wall heat fluxes [W]
room_SIDE2
    convective: -0.0245601482
    radiative:  -0
    total:      -0.0245601482
    Temperature : min = 293.062137, max = 293.814477, average = 293.549961
room_FLOOR
    convective: 2.98593795
    radiative:  -0
    total:      2.98593795
    Temperature : min = 293.012002, max = 301.384008, average = 293.629358
room_CEILING
    convective: -1.44763797
    radiative:  -0
    total:      -1.44763797
    Temperature : min = 293.565289, max = 293.807015, average = 293.639924
room_BACK
    convective: -0.256450809
    radiative:  -0
    total:      -0.256450809
    Temperature : min = 293.020291, max = 293.819553, average = 293.566252
room_SIDE1
    convective: -0.107453499
    radiative:  -0
    total:      -0.107453499
    Temperature : min = 293.061805, max = 293.823874, average = 293.552367
manikin
    convective: 128.768191
    radiative:  -0
    total:      128.768191
    Temperature : min = 307.15, max = 307.15, average = 307.15

yPlusRAS yplusRAS output:
    patch room_SIDE2 y+ : min = 0.185010288, max = 7.79226436, average = 3.09857917
    patch room_FLOOR y+ : min = 0.0799068208, max = 6.54776981, average = 2.34030252
    patch room_CEILING y+ : min = 0.258363687, max = 6.53363388, average = 2.63846506
    patch room_BACK y+ : min = 0.184144123, max = 51.7833246, average = 4.09366103
    patch room_SIDE1 y+ : min = 0.168230017, max = 7.75468225, average = 3.09240545
    patch manikin y+ : min = 0.0201904463, max = 7.76657702, average = 0.822243906

yPlusRASLowRe yplusRASLowRe output:
room_SIDE2
    y+ : min = 0.185010288, max = 7.79226436, average = 3.09857917
    y : min = 0.000544684214, max = 0.00250000001, average = 0.00234603179
room_FLOOR
    y+ : min = 0.0799068208, max = 6.54776981, average = 2.34030252
    y : min = 0.000139430812, max = 0.00249999971, average = 0.00161917022
room_CEILING
    y+ : min = 0.258363687, max = 6.53363388, average = 2.63846506
    y : min = 0.000647142072, max = 0.00249999973, average = 0.00231379284
room_BACK
    y+ : min = 0.184144123, max = 51.7833246, average = 4.09366103
    y : min = 0.000872666798, max = 0.00549005797, average = 0.00123342378
room_SIDE1
    y+ : min = 0.168230017, max = 7.75468225, average = 3.09240545
    y : min = 0.000544684643, max = 0.0025, average = 0.00234602486
manikin
    y+ : min = 0.0201904463, max = 7.76657702, average = 0.822243906
    y : min = 4.97449872e-05, max = 0.00255854003, average = 0.000292020944

forceCoeffs forceCoeffs1 output:
    Cm    = -4492.73369
    Cd    = -98.6937379
    Cl    = -8650.5997
    Cl(f) = -8818.03354
    Cl(r) = 167.433838

Time = 7013

DILUPBiCG:  Solving for Ux, Initial residual = 0.000204392839, Final residual = 5.03867634e-06, No Iterations 1
DILUPBiCG:  Solving for Uy, Initial residual = 9.63514432e-05, Final residual = 6.71402129e-08, No Iterations 2
DILUPBiCG:  Solving for Uz, Initial residual = 0.000206681299, Final residual = 6.84993441e-08, No Iterations 2
DILUPBiCG:  Solving for h, Initial residual = 4.35237644e-05, Final residual = 9.50384828e-07, No Iterations 1
GAMG:  Solving for p_rgh, Initial residual = 0.00238799595, Final residual = 1.27681715e-05, No Iterations 2
time step continuity errors : sum local = 1.13983267e-05, global = 4.79525795e-08, cumulative = 9.38315982e-07
rho max/min : 1.21151376 1.14723617
smoothSolver:  Solving for omega, Initial residual = 4.57803128e-06, Final residual = 4.57648843e-07, No Iterations 2
smoothSolver:  Solving for k, Initial residual = 0.000934202655, Final residual = 8.11003474e-05, No Iterations 2
ExecutionTime = 155.31 s  ClockTime = 156 s

wallHeatFlux wallHeatFlux output:

Wall heat fluxes [W]
room_SIDE2
    convective: -0.0251415476
    radiative:  -0
    total:      -0.0251415476
    Temperature : min = 293.062137, max = 293.814477, average = 293.549978
room_FLOOR
    convective: 2.98571674
    radiative:  -0
    total:      2.98571674
    Temperature : min = 293.012009, max = 301.384027, average = 293.629367
room_CEILING
    convective: -1.44771082
    radiative:  -0
    total:      -1.44771082
    Temperature : min = 293.565232, max = 293.807015, average = 293.639927
room_BACK
    convective: -0.256732452
    radiative:  -0
    total:      -0.256732452
    Temperature : min = 293.020306, max = 293.819565, average = 293.566269
room_SIDE1
    convective: -0.107354107
    radiative:  -0
    total:      -0.107354107
    Temperature : min = 293.061805, max = 293.823874, average = 293.552365
manikin
    convective: 128.769205
    radiative:  -0
    total:      128.769205
    Temperature : min = 307.15, max = 307.15, average = 307.15

yPlusRAS yplusRAS output:
    patch room_SIDE2 y+ : min = 0.192924579, max = 7.78801053, average = 3.09806963
    patch room_FLOOR y+ : min = 0.0797972728, max = 6.54776985, average = 2.33997025
    patch room_CEILING y+ : min = 0.245973037, max = 6.53363384, average = 2.63814364
    patch room_BACK y+ : min = 0.164294437, max = 51.7813379, average = 4.09374938
    patch room_SIDE1 y+ : min = 0.168072888, max = 7.76475126, average = 3.09229804
    patch manikin y+ : min = 0.0216031584, max = 7.76657386, average = 0.822239203

yPlusRASLowRe yplusRASLowRe output:
room_SIDE2
    y+ : min = 0.192924579, max = 7.78801053, average = 3.09806963
    y : min = 0.000544684214, max = 0.00250000001, average = 0.00234603179
room_FLOOR
    y+ : min = 0.0797972728, max = 6.54776985, average = 2.33997025
    y : min = 0.000139430812, max = 0.00249999971, average = 0.00161917022
room_CEILING
    y+ : min = 0.245973037, max = 6.53363384, average = 2.63814364
    y : min = 0.000647142072, max = 0.00249999973, average = 0.00231379284
room_BACK
    y+ : min = 0.164294437, max = 51.7813379, average = 4.09374938
    y : min = 0.000872666798, max = 0.00549005797, average = 0.00123342378
room_SIDE1
    y+ : min = 0.168072888, max = 7.76475126, average = 3.09229804
    y : min = 0.000544684643, max = 0.0025, average = 0.00234602486
manikin
    y+ : min = 0.0216031584, max = 7.76657386, average = 0.822239203
    y : min = 4.97449872e-05, max = 0.00255854003, average = 0.000292020944

forceCoeffs forceCoeffs1 output:
    Cm    = -4492.73357
    Cd    = -98.6937973
    Cl    = -8650.59967
    Cl(f) = -8818.03341
    Cl(r) = 167.433737

Time = 7014

DILUPBiCG:  Solving for Ux, Initial residual = 0.000204252865, Final residual = 4.61167262e-06, No Iterations 1
DILUPBiCG:  Solving for Uy, Initial residual = 9.60993673e-05, Final residual = 6.50608792e-08, No Iterations 2
DILUPBiCG:  Solving for Uz, Initial residual = 0.000205927813, Final residual = 6.82486227e-08, No Iterations 2
DILUPBiCG:  Solving for h, Initial residual = 4.35108998e-05, Final residual = 9.4927561e-07, No Iterations 1
GAMG:  Solving for p_rgh, Initial residual = 0.00238620882, Final residual = 1.27394984e-05, No Iterations 2
time step continuity errors : sum local = 1.137324e-05, global = 3.54320824e-08, cumulative = 9.73748065e-07
rho max/min : 1.21151415 1.14723617
smoothSolver:  Solving for omega, Initial residual = 4.5891782e-06, Final residual = 1.7107938e-07, No Iterations 3
smoothSolver:  Solving for k, Initial residual = 0.00092230327, Final residual = 7.97036587e-05, No Iterations 2
ExecutionTime = 167.9 s  ClockTime = 168 s

wallHeatFlux wallHeatFlux output:

Wall heat fluxes [W]
room_SIDE2
    convective: -0.0257183189
    radiative:  -0
    total:      -0.0257183189
    Temperature : min = 293.062137, max = 293.814477, average = 293.549994
room_FLOOR
    convective: 2.98545737
    radiative:  -0
    total:      2.98545737
    Temperature : min = 293.012015, max = 301.384047, average = 293.629378
room_CEILING
    convective: -1.44778787
    radiative:  -0
    total:      -1.44778787
    Temperature : min = 293.564878, max = 293.807015, average = 293.63993
room_BACK
    convective: -0.257013671
    radiative:  -0
    total:      -0.257013671
    Temperature : min = 293.020322, max = 293.81958, average = 293.566287
room_SIDE1
    convective: -0.107285195
    radiative:  -0
    total:      -0.107285195
    Temperature : min = 293.061805, max = 293.823874, average = 293.552363
manikin
    convective: 128.770454
    radiative:  -0
    total:      128.770454
    Temperature : min = 307.15, max = 307.15, average = 307.15

yPlusRAS yplusRAS output:
    patch room_SIDE2 y+ : min = 0.206808979, max = 7.78319564, average = 3.09755083
    patch room_FLOOR y+ : min = 0.0796893608, max = 6.54776988, average = 2.33965744
    patch room_CEILING y+ : min = 0.245781038, max = 6.5336338, average = 2.63782488
    patch room_BACK y+ : min = 0.164200216, max = 51.779322, average = 4.09384412
    patch room_SIDE1 y+ : min = 0.157026249, max = 7.77498179, average = 3.09218681
    patch manikin y+ : min = 0.0234322615, max = 7.76656952, average = 0.822230044

yPlusRASLowRe yplusRASLowRe output:
room_SIDE2
    y+ : min = 0.206808979, max = 7.78319564, average = 3.09755083
    y : min = 0.000544684214, max = 0.00250000001, average = 0.00234603179
room_FLOOR
    y+ : min = 0.0796893608, max = 6.54776988, average = 2.33965744
    y : min = 0.000139430812, max = 0.00249999971, average = 0.00161917022
room_CEILING
    y+ : min = 0.245781038, max = 6.5336338, average = 2.63782488
    y : min = 0.000647142072, max = 0.00249999973, average = 0.00231379284
room_BACK
    y+ : min = 0.164200216, max = 51.779322, average = 4.09384412
    y : min = 0.000872666798, max = 0.00549005797, average = 0.00123342378
room_SIDE1
    y+ : min = 0.157026249, max = 7.77498179, average = 3.09218681
    y : min = 0.000544684643, max = 0.0025, average = 0.00234602486
manikin
    y+ : min = 0.0234322615, max = 7.76656952, average = 0.822230044
    y : min = 4.97449872e-05, max = 0.00255854003, average = 0.000292020944

forceCoeffs forceCoeffs1 output:
    Cm    = -4492.73346
    Cd    = -98.6938524
    Cl    = -8650.59964
    Cl(f) = -8818.03328
    Cl(r) = 167.433636

Time = 7015

DILUPBiCG:  Solving for Ux, Initial residual = 0.000203893322, Final residual = 4.20103168e-06, No Iterations 1
DILUPBiCG:  Solving for Uy, Initial residual = 9.57894867e-05, Final residual = 6.45176387e-08, No Iterations 2
DILUPBiCG:  Solving for Uz, Initial residual = 0.000205468199, Final residual = 6.84324331e-08, No Iterations 2
DILUPBiCG:  Solving for h, Initial residual = 4.34988874e-05, Final residual = 9.48703512e-07, No Iterations 1
GAMG:  Solving for p_rgh, Initial residual = 0.00238374413, Final residual = 1.27209474e-05, No Iterations 2
time step continuity errors : sum local = 1.1357331e-05, global = 2.45155761e-08, cumulative = 9.98263641e-07
rho max/min : 1.21151463 1.14723617
smoothSolver:  Solving for omega, Initial residual = 4.4670866e-06, Final residual = 4.46589459e-07, No Iterations 2
smoothSolver:  Solving for k, Initial residual = 0.000908101315, Final residual = 7.84219668e-05, No Iterations 2
ExecutionTime = 179.54 s  ClockTime = 180 s

wallHeatFlux wallHeatFlux output:

Wall heat fluxes [W]
room_SIDE2
    convective: -0.0262920782
    radiative:  -0
    total:      -0.0262920782
    Temperature : min = 293.062137, max = 293.814477, average = 293.55001
room_FLOOR
    convective: 2.98515814
    radiative:  -0
    total:      2.98515814
    Temperature : min = 293.012022, max = 301.384068, average = 293.629389
room_CEILING
    convective: -1.44787063
    radiative:  -0
    total:      -1.44787063
    Temperature : min = 293.564419, max = 293.807015, average = 293.639933
room_BACK
    convective: -0.257294887
    radiative:  -0
    total:      -0.257294887
    Temperature : min = 293.020338, max = 293.819597, average = 293.566305
room_SIDE1
    convective: -0.107247499
    radiative:  -0
    total:      -0.107247499
    Temperature : min = 293.061805, max = 293.823874, average = 293.552362
manikin
    convective: 128.77189
    radiative:  -0
    total:      128.77189
    Temperature : min = 307.15, max = 307.15, average = 307.15

yPlusRAS yplusRAS output:
    patch room_SIDE2 y+ : min = 0.222041029, max = 7.77833031, average = 3.09707716
    patch room_FLOOR y+ : min = 0.0795826093, max = 6.54776991, average = 2.33927002
    patch room_CEILING y+ : min = 0.245265186, max = 6.53363377, average = 2.63747766
    patch room_BACK y+ : min = 0.133615034, max = 51.7772812, average = 4.09392626
    patch room_SIDE1 y+ : min = 0.12854774, max = 7.78530688, average = 3.09209752
    patch manikin y+ : min = 0.0246733005, max = 7.76656423, average = 0.822215288

yPlusRASLowRe yplusRASLowRe output:
room_SIDE2
    y+ : min = 0.222041029, max = 7.77833031, average = 3.09707716
    y : min = 0.000544684214, max = 0.00250000001, average = 0.00234603179
room_FLOOR
    y+ : min = 0.0795826093, max = 6.54776991, average = 2.33927002
    y : min = 0.000139430812, max = 0.00249999971, average = 0.00161917022
room_CEILING
    y+ : min = 0.245265186, max = 6.53363377, average = 2.63747766
    y : min = 0.000647142072, max = 0.00249999973, average = 0.00231379284
room_BACK
    y+ : min = 0.133615034, max = 51.7772812, average = 4.09392626
    y : min = 0.000872666798, max = 0.00549005797, average = 0.00123342378
room_SIDE1
    y+ : min = 0.12854774, max = 7.78530688, average = 3.09209752
    y : min = 0.000544684643, max = 0.0025, average = 0.00234602486
manikin
    y+ : min = 0.0246733005, max = 7.76656423, average = 0.822215288
    y : min = 4.97449872e-05, max = 0.00255854003, average = 0.000292020944

forceCoeffs forceCoeffs1 output:
    Cm    = -4492.73335
    Cd    = -98.6939217
    Cl    = -8650.59961
    Cl(f) = -8818.03316
    Cl(r) = 167.433544

Time = 7016

DILUPBiCG:  Solving for Ux, Initial residual = 0.000203474056, Final residual = 3.83903825e-06, No Iterations 1
DILUPBiCG:  Solving for Uy, Initial residual = 9.54365136e-05, Final residual = 6.46160418e-08, No Iterations 2
DILUPBiCG:  Solving for Uz, Initial residual = 0.000205102277, Final residual = 6.81912331e-08, No Iterations 2
DILUPBiCG:  Solving for h, Initial residual = 4.34765301e-05, Final residual = 9.48700281e-07, No Iterations 1
GAMG:  Solving for p_rgh, Initial residual = 0.00238351958, Final residual = 1.27225814e-05, No Iterations 2
time step continuity errors : sum local = 1.13593945e-05, global = 1.64042456e-08, cumulative = 1.01466789e-06
rho max/min : 1.21151515 1.14723617
smoothSolver:  Solving for omega, Initial residual = 4.50325266e-06, Final residual = 1.68335221e-07, No Iterations 3
smoothSolver:  Solving for k, Initial residual = 0.000893569011, Final residual = 7.69533904e-05, No Iterations 2
ExecutionTime = 191.15 s  ClockTime = 192 s

wallHeatFlux wallHeatFlux output:

Wall heat fluxes [W]
room_SIDE2
    convective: -0.0268659747
    radiative:  -0
    total:      -0.0268659747
    Temperature : min = 293.062137, max = 293.814477, average = 293.550026
room_FLOOR
    convective: 2.98482036
    radiative:  -0
    total:      2.98482036
    Temperature : min = 293.012029, max = 301.384089, average = 293.629402
room_CEILING
    convective: -1.44795962
    radiative:  -0
    total:      -1.44795962
    Temperature : min = 293.564047, max = 293.807015, average = 293.639936
room_BACK
    convective: -0.257576774
    radiative:  -0
    total:      -0.257576774
    Temperature : min = 293.020355, max = 293.819616, average = 293.566322
room_SIDE1
    convective: -0.107241378
    radiative:  -0
    total:      -0.107241378
    Temperature : min = 293.061805, max = 293.823874, average = 293.552361
manikin
    convective: 128.773451
    radiative:  -0
    total:      128.773451
    Temperature : min = 307.15, max = 307.15, average = 307.15

yPlusRAS yplusRAS output:
    patch room_SIDE2 y+ : min = 0.23635302, max = 7.77333544, average = 3.09664987
    patch room_FLOOR y+ : min = 0.0794768456, max = 6.54776993, average = 2.33876982
    patch room_CEILING y+ : min = 0.244614006, max = 6.53363374, average = 2.63714897
    patch room_BACK y+ : min = 0.126057258, max = 51.7752162, average = 4.09399483
    patch room_SIDE1 y+ : min = 0.169581024, max = 7.79558567, average = 3.09203491
    patch manikin y+ : min = 0.0242646326, max = 7.76655797, average = 0.822178358

yPlusRASLowRe yplusRASLowRe output:
room_SIDE2
    y+ : min = 0.23635302, max = 7.77333544, average = 3.09664987
    y : min = 0.000544684214, max = 0.00250000001, average = 0.00234603179
room_FLOOR
    y+ : min = 0.0794768456, max = 6.54776993, average = 2.33876982
    y : min = 0.000139430812, max = 0.00249999971, average = 0.00161917022
room_CEILING
    y+ : min = 0.244614006, max = 6.53363374, average = 2.63714897
    y : min = 0.000647142072, max = 0.00249999973, average = 0.00231379284
room_BACK
    y+ : min = 0.126057258, max = 51.7752162, average = 4.09399483
    y : min = 0.000872666798, max = 0.00549005797, average = 0.00123342378
room_SIDE1
    y+ : min = 0.169581024, max = 7.79558567, average = 3.09203491
    y : min = 0.000544684643, max = 0.0025, average = 0.00234602486
manikin
    y+ : min = 0.0242646326, max = 7.76655797, average = 0.822178358
    y : min = 4.97449872e-05, max = 0.00255854003, average = 0.000292020944

forceCoeffs forceCoeffs1 output:
    Cm    = -4492.73325
    Cd    = -98.6940048
    Cl    = -8650.59957
    Cl(f) = -8818.03303
    Cl(r) = 167.433461

Time = 7017

DILUPBiCG:  Solving for Ux, Initial residual = 0.000203145526, Final residual = 3.64077897e-06, No Iterations 1
DILUPBiCG:  Solving for Uy, Initial residual = 9.5089703e-05, Final residual = 6.34415307e-08, No Iterations 2
DILUPBiCG:  Solving for Uz, Initial residual = 0.000204640787, Final residual = 6.73651003e-08, No Iterations 2
DILUPBiCG:  Solving for h, Initial residual = 4.34458978e-05, Final residual = 9.48246343e-07, No Iterations 1
GAMG:  Solving for p_rgh, Initial residual = 0.00237956486, Final residual = 1.26799027e-05, No Iterations 2
time step continuity errors : sum local = 1.13219169e-05, global = 1.36509722e-08, cumulative = 1.02831886e-06
rho max/min : 1.21151561 1.14723617
smoothSolver:  Solving for omega, Initial residual = 4.39121705e-06, Final residual = 4.3873052e-07, No Iterations 2
smoothSolver:  Solving for k, Initial residual = 0.000877503471, Final residual = 7.56215528e-05, No Iterations 2
ExecutionTime = 202.58 s  ClockTime = 203 s

wallHeatFlux wallHeatFlux output:

Wall heat fluxes [W]
room_SIDE2
    convective: -0.0274419807
    radiative:  -0
    total:      -0.0274419807
    Temperature : min = 293.062137, max = 293.814477, average = 293.550041
room_FLOOR
    convective: 2.98444232
    radiative:  -0
    total:      2.98444232
    Temperature : min = 293.012037, max = 301.38411, average = 293.629416
room_CEILING
    convective: -1.44805565
    radiative:  -0
    total:      -1.44805565
    Temperature : min = 293.563765, max = 293.807015, average = 293.63994
room_BACK
    convective: -0.257858959
    radiative:  -0
    total:      -0.257858959
    Temperature : min = 293.020373, max = 293.819637, average = 293.56634
room_SIDE1
    convective: -0.107266118
    radiative:  -0
    total:      -0.107266118
    Temperature : min = 293.061805, max = 293.823874, average = 293.552362
manikin
    convective: 128.775063
    radiative:  -0
    total:      128.775063
    Temperature : min = 307.15, max = 307.15, average = 307.15

yPlusRAS yplusRAS output:
    patch room_SIDE2 y+ : min = 0.24905082, max = 7.76817563, average = 3.09619964
    patch room_FLOOR y+ : min = 0.0793720934, max = 6.54776995, average = 2.33815881
    patch room_CEILING y+ : min = 0.245739056, max = 6.53363372, average = 2.63678311
    patch room_BACK y+ : min = 0.145245178, max = 51.7731268, average = 4.09405092
    patch room_SIDE1 y+ : min = 0.165285699, max = 7.80580352, average = 3.09195943
    patch manikin y+ : min = 0.0240055803, max = 7.76655067, average = 0.822139254

yPlusRASLowRe yplusRASLowRe output:
room_SIDE2
    y+ : min = 0.24905082, max = 7.76817563, average = 3.09619964
    y : min = 0.000544684214, max = 0.00250000001, average = 0.00234603179
room_FLOOR
    y+ : min = 0.0793720934, max = 6.54776995, average = 2.33815881
    y : min = 0.000139430812, max = 0.00249999971, average = 0.00161917022
room_CEILING
    y+ : min = 0.245739056, max = 6.53363372, average = 2.63678311
    y : min = 0.000647142072, max = 0.00249999973, average = 0.00231379284
room_BACK
    y+ : min = 0.145245178, max = 51.7731268, average = 4.09405092
    y : min = 0.000872666798, max = 0.00549005797, average = 0.00123342378
room_SIDE1
    y+ : min = 0.165285699, max = 7.80580352, average = 3.09195943
    y : min = 0.000544684643, max = 0.0025, average = 0.00234602486
manikin
    y+ : min = 0.0240055803, max = 7.76655067, average = 0.822139254
    y : min = 4.97449872e-05, max = 0.00255854003, average = 0.000292020944

forceCoeffs forceCoeffs1 output:
    Cm    = -4492.73314
    Cd    = -98.6940853
    Cl    = -8650.59952
    Cl(f) = -8818.0329
    Cl(r) = 167.433385

Time = 7018

DILUPBiCG:  Solving for Ux, Initial residual = 0.000202826624, Final residual = 3.74934084e-06, No Iterations 1
DILUPBiCG:  Solving for Uy, Initial residual = 9.47639286e-05, Final residual = 6.1173618e-08, No Iterations 2
DILUPBiCG:  Solving for Uz, Initial residual = 0.000204072627, Final residual = 6.60816271e-08, No Iterations 2
DILUPBiCG:  Solving for h, Initial residual = 4.34098862e-05, Final residual = 9.48091321e-07, No Iterations 1
GAMG:  Solving for p_rgh, Initial residual = 0.00237463388, Final residual = 1.26663656e-05, No Iterations 2
time step continuity errors : sum local = 1.13103386e-05, global = 1.63881562e-08, cumulative = 1.04470701e-06
rho max/min : 1.21151594 1.14723617
smoothSolver:  Solving for omega, Initial residual = 4.43013743e-06, Final residual = 1.66473672e-07, No Iterations 3
smoothSolver:  Solving for k, Initial residual = 0.000861802461, Final residual = 7.41166688e-05, No Iterations 2
ExecutionTime = 214.19 s  ClockTime = 215 s

wallHeatFlux wallHeatFlux output:

Wall heat fluxes [W]
room_SIDE2
    convective: -0.0280216896
    radiative:  -0
    total:      -0.0280216896
    Temperature : min = 293.062137, max = 293.814477, average = 293.550057
room_FLOOR
    convective: 2.98402156
    radiative:  -0
    total:      2.98402156
    Temperature : min = 293.012044, max = 301.384132, average = 293.629432
room_CEILING
    convective: -1.44815832
    radiative:  -0
    total:      -1.44815832
    Temperature : min = 293.563589, max = 293.807015, average = 293.639944
room_BACK
    convective: -0.258143442
    radiative:  -0
    total:      -0.258143442
    Temperature : min = 293.020391, max = 293.81966, average = 293.566357
room_SIDE1
    convective: -0.107321318
    radiative:  -0
    total:      -0.107321318
    Temperature : min = 293.061805, max = 293.823874, average = 293.552363
manikin
    convective: 128.776786
    radiative:  -0
    total:      128.776786
    Temperature : min = 307.15, max = 307.15, average = 307.15

yPlusRAS yplusRAS output:
    patch room_SIDE2 y+ : min = 0.251333477, max = 7.76293013, average = 3.09572058
    patch room_FLOOR y+ : min = 0.0792683416, max = 6.54776997, average = 2.33746004
    patch room_CEILING y+ : min = 0.252850083, max = 6.53363371, average = 2.63634991
    patch room_BACK y+ : min = 0.163806895, max = 51.7710109, average = 4.09409695
    patch room_SIDE1 y+ : min = 0.161475145, max = 7.81593704, average = 3.0918815
    patch manikin y+ : min = 0.0237284481, max = 7.76654231, average = 0.822088895

yPlusRASLowRe yplusRASLowRe output:
room_SIDE2
    y+ : min = 0.251333477, max = 7.76293013, average = 3.09572058
    y : min = 0.000544684214, max = 0.00250000001, average = 0.00234603179
room_FLOOR
    y+ : min = 0.0792683416, max = 6.54776997, average = 2.33746004
    y : min = 0.000139430812, max = 0.00249999971, average = 0.00161917022
room_CEILING
    y+ : min = 0.252850083, max = 6.53363371, average = 2.63634991
    y : min = 0.000647142072, max = 0.00249999973, average = 0.00231379284
room_BACK
    y+ : min = 0.163806895, max = 51.7710109, average = 4.09409695
    y : min = 0.000872666798, max = 0.00549005797, average = 0.00123342378
room_SIDE1
    y+ : min = 0.161475145, max = 7.81593704, average = 3.0918815
    y : min = 0.000544684643, max = 0.0025, average = 0.00234602486
manikin
    y+ : min = 0.0237284481, max = 7.76654231, average = 0.822088895
    y : min = 4.97449872e-05, max = 0.00255854003, average = 0.000292020944

forceCoeffs forceCoeffs1 output:
    Cm    = -4492.73304
    Cd    = -98.6941433
    Cl    = -8650.59947
    Cl(f) = -8818.03277
    Cl(r) = 167.433302

Time = 7019

DILUPBiCG:  Solving for Ux, Initial residual = 0.000202502073, Final residual = 4.58890111e-06, No Iterations 1
DILUPBiCG:  Solving for Uy, Initial residual = 9.44768846e-05, Final residual = 5.83574038e-08, No Iterations 2
DILUPBiCG:  Solving for Uz, Initial residual = 0.000203452341, Final residual = 6.4699577e-08, No Iterations 2
DILUPBiCG:  Solving for h, Initial residual = 4.33750231e-05, Final residual = 9.48271054e-07, No Iterations 1
GAMG:  Solving for p_rgh, Initial residual = 0.00237153406, Final residual = 1.2688037e-05, No Iterations 2
time step continuity errors : sum local = 1.13301776e-05, global = 2.44286727e-08, cumulative = 1.06913569e-06
rho max/min : 1.21151606 1.14723618
smoothSolver:  Solving for omega, Initial residual = 4.32073246e-06, Final residual = 1.62093362e-07, No Iterations 3
smoothSolver:  Solving for k, Initial residual = 0.000846547541, Final residual = 7.28364638e-05, No Iterations 2
ExecutionTime = 225.82 s  ClockTime = 226 s

wallHeatFlux wallHeatFlux output:

Wall heat fluxes [W]
room_SIDE2
    convective: -0.0286040649
    radiative:  -0
    total:      -0.0286040649
    Temperature : min = 293.062137, max = 293.814477, average = 293.550072
room_FLOOR
    convective: 2.98355589
    radiative:  -0
    total:      2.98355589
    Temperature : min = 293.012051, max = 301.384153, average = 293.629449
room_CEILING
    convective: -1.44826599
    radiative:  -0
    total:      -1.44826599
    Temperature : min = 293.56352, max = 293.807015, average = 293.639949
room_BACK
    convective: -0.258429555
    radiative:  -0
    total:      -0.258429555
    Temperature : min = 293.02041, max = 293.819684, average = 293.566375
room_SIDE1
    convective: -0.107406088
    radiative:  -0
    total:      -0.107406088
    Temperature : min = 293.061805, max = 293.823874, average = 293.552365
manikin
    convective: 128.778609
    radiative:  -0
    total:      128.778609
    Temperature : min = 307.15, max = 307.15, average = 307.15

yPlusRAS yplusRAS output:
    patch room_SIDE2 y+ : min = 0.252664725, max = 7.75777211, average = 3.09523826
    patch room_FLOOR y+ : min = 0.0791655863, max = 6.54776998, average = 2.33677548
    patch room_CEILING y+ : min = 0.259944375, max = 6.53363369, average = 2.6358606
    patch room_BACK y+ : min = 0.157958537, max = 51.7688694, average = 4.09413549
    patch room_SIDE1 y+ : min = 0.158308999, max = 7.82597048, average = 3.09181433
    patch manikin y+ : min = 0.0232008541, max = 7.76653323, average = 0.822033251

yPlusRASLowRe yplusRASLowRe output:
room_SIDE2
    y+ : min = 0.252664725, max = 7.75777211, average = 3.09523826
    y : min = 0.000544684214, max = 0.00250000001, average = 0.00234603179
room_FLOOR
    y+ : min = 0.0791655863, max = 6.54776998, average = 2.33677548
    y : min = 0.000139430812, max = 0.00249999971, average = 0.00161917022
room_CEILING
    y+ : min = 0.259944375, max = 6.53363369, average = 2.6358606
    y : min = 0.000647142072, max = 0.00249999973, average = 0.00231379284
room_BACK
    y+ : min = 0.157958537, max = 51.7688694, average = 4.09413549
    y : min = 0.000872666798, max = 0.00549005797, average = 0.00123342378
room_SIDE1
    y+ : min = 0.158308999, max = 7.82597048, average = 3.09181433
    y : min = 0.000544684643, max = 0.0025, average = 0.00234602486
manikin
    y+ : min = 0.0232008541, max = 7.76653323, average = 0.822033251
    y : min = 4.97449872e-05, max = 0.00255854003, average = 0.000292020944

forceCoeffs forceCoeffs1 output:
    Cm    = -4492.73293
    Cd    = -98.6941895
    Cl    = -8650.59944
    Cl(f) = -8818.03265
    Cl(r) = 167.433209

Time = 7020

DILUPBiCG:  Solving for Ux, Initial residual = 0.000202192084, Final residual = 5.99724671e-06, No Iterations 1
DILUPBiCG:  Solving for Uy, Initial residual = 9.41929941e-05, Final residual = 5.49078744e-08, No Iterations 2
DILUPBiCG:  Solving for Uz, Initial residual = 0.000202837836, Final residual = 6.33152838e-08, No Iterations 2
DILUPBiCG:  Solving for h, Initial residual = 4.33299385e-05, Final residual = 9.49172726e-07, No Iterations 1
GAMG:  Solving for p_rgh, Initial residual = 0.00236407488, Final residual = 1.2594857e-05, No Iterations 2
time step continuity errors : sum local = 1.12474077e-05, global = 3.13511645e-08, cumulative = 1.10048685e-06
rho max/min : 1.21151594 1.14723618
smoothSolver:  Solving for omega, Initial residual = 4.24609902e-06, Final residual = 4.24201601e-07, No Iterations 2
smoothSolver:  Solving for k, Initial residual = 0.000830005497, Final residual = 7.14941037e-05, No Iterations 2
ExecutionTime = 237.34 s  ClockTime = 238 s

wallHeatFlux wallHeatFlux output:

Wall heat fluxes [W]
room_SIDE2
    convective: -0.0291878679
    radiative:  -0
    total:      -0.0291878679
    Temperature : min = 293.062137, max = 293.814477, average = 293.550088
room_FLOOR
    convective: 2.98304863
    radiative:  -0
    total:      2.98304863
    Temperature : min = 293.012059, max = 301.384175, average = 293.629468
room_CEILING
    convective: -1.44837692
    radiative:  -0
    total:      -1.44837692
    Temperature : min = 293.563557, max = 293.807015, average = 293.639954
room_BACK
    convective: -0.258719433
    radiative:  -0
    total:      -0.258719433
    Temperature : min = 293.020429, max = 293.819709, average = 293.566393
room_SIDE1
    convective: -0.107518876
    radiative:  -0
    total:      -0.107518876
    Temperature : min = 293.061805, max = 293.823874, average = 293.552368
manikin
    convective: 128.780554
    radiative:  -0
    total:      128.780554
    Temperature : min = 307.15, max = 307.15, average = 307.15

yPlusRAS yplusRAS output:
    patch room_SIDE2 y+ : min = 0.254018516, max = 7.7527919, average = 3.09474524
    patch room_FLOOR y+ : min = 0.0790638097, max = 6.54777, average = 2.33623974
    patch room_CEILING y+ : min = 0.254493552, max = 6.53363367, average = 2.63535827
    patch room_BACK y+ : min = 0.152147811, max = 51.7667057, average = 4.09416874
    patch room_SIDE1 y+ : min = 0.155716879, max = 7.83588675, average = 3.091761
    patch manikin y+ : min = 0.0223963108, max = 7.76652391, average = 0.821971517

yPlusRASLowRe yplusRASLowRe output:
room_SIDE2
    y+ : min = 0.254018516, max = 7.7527919, average = 3.09474524
    y : min = 0.000544684214, max = 0.00250000001, average = 0.00234603179
room_FLOOR
    y+ : min = 0.0790638097, max = 6.54777, average = 2.33623974
    y : min = 0.000139430812, max = 0.00249999971, average = 0.00161917022
room_CEILING
    y+ : min = 0.254493552, max = 6.53363367, average = 2.63535827
    y : min = 0.000647142072, max = 0.00249999973, average = 0.00231379284
room_BACK
    y+ : min = 0.152147811, max = 51.7667057, average = 4.09416874
    y : min = 0.000872666798, max = 0.00549005797, average = 0.00123342378
room_SIDE1
    y+ : min = 0.155716879, max = 7.83588675, average = 3.091761
    y : min = 0.000544684643, max = 0.0025, average = 0.00234602486
manikin
    y+ : min = 0.0223963108, max = 7.76652391, average = 0.821971517
    y : min = 4.97449872e-05, max = 0.00255854003, average = 0.000292020944

forceCoeffs forceCoeffs1 output:
    Cm    = -4492.73283
    Cd    = -98.6942196
    Cl    = -8650.59942
    Cl(f) = -8818.03254
    Cl(r) = 167.433115

Time = 7021

DILUPBiCG:  Solving for Ux, Initial residual = 0.000201846965, Final residual = 7.73290844e-06, No Iterations 1
DILUPBiCG:  Solving for Uy, Initial residual = 9.38760129e-05, Final residual = 5.17645644e-08, No Iterations 2
DILUPBiCG:  Solving for Uz, Initial residual = 0.000202097645, Final residual = 6.18034502e-08, No Iterations 2
DILUPBiCG:  Solving for h, Initial residual = 4.32772349e-05, Final residual = 9.5020025e-07, No Iterations 1
GAMG:  Solving for p_rgh, Initial residual = 0.00235859817, Final residual = 1.25060279e-05, No Iterations 2
time step continuity errors : sum local = 1.11684993e-05, global = 3.74022637e-08, cumulative = 1.13788912e-06
rho max/min : 1.21151552 1.14723618
smoothSolver:  Solving for omega, Initial residual = 4.30283165e-06, Final residual = 1.62819238e-07, No Iterations 3
smoothSolver:  Solving for k, Initial residual = 0.000813826318, Final residual = 7.01315764e-05, No Iterations 2
ExecutionTime = 248.99 s  ClockTime = 249 s

wallHeatFlux wallHeatFlux output:

Wall heat fluxes [W]
room_SIDE2
    convective: -0.0297736742
    radiative:  -0
    total:      -0.0297736742
    Temperature : min = 293.062137, max = 293.814477, average = 293.550104
room_FLOOR
    convective: 2.98250459
    radiative:  -0
    total:      2.98250459
    Temperature : min = 293.012067, max = 301.384197, average = 293.629488
room_CEILING
    convective: -1.44849022
    radiative:  -0
    total:      -1.44849022
    Temperature : min = 293.563702, max = 293.807015, average = 293.639959
room_BACK
    convective: -0.259012657
    radiative:  -0
    total:      -0.259012657
    Temperature : min = 293.020449, max = 293.819734, average = 293.566411
room_SIDE1
    convective: -0.107657646
    radiative:  -0
    total:      -0.107657646
    Temperature : min = 293.061805, max = 293.823874, average = 293.552371
manikin
    convective: 128.782691
    radiative:  -0
    total:      128.782691
    Temperature : min = 307.15, max = 307.15, average = 307.15

yPlusRAS yplusRAS output:
    patch room_SIDE2 y+ : min = 0.255392917, max = 7.74804692, average = 3.09423055
    patch room_FLOOR y+ : min = 0.0789629309, max = 6.54777001, average = 2.33574057
    patch room_CEILING y+ : min = 0.24876334, max = 6.53363364, average = 2.63482847
    patch room_BACK y+ : min = 0.14651776, max = 51.764517, average = 4.09419684
    patch room_SIDE1 y+ : min = 0.153596819, max = 7.84565792, average = 3.09173219
    patch manikin y+ : min = 0.021782463, max = 7.76651412, average = 0.821927492

yPlusRASLowRe yplusRASLowRe output:
room_SIDE2
    y+ : min = 0.255392917, max = 7.74804692, average = 3.09423055
    y : min = 0.000544684214, max = 0.00250000001, average = 0.00234603179
room_FLOOR
    y+ : min = 0.0789629309, max = 6.54777001, average = 2.33574057
    y : min = 0.000139430812, max = 0.00249999971, average = 0.00161917022
room_CEILING
    y+ : min = 0.24876334, max = 6.53363364, average = 2.63482847
    y : min = 0.000647142072, max = 0.00249999973, average = 0.00231379284
room_BACK
    y+ : min = 0.14651776, max = 51.764517, average = 4.09419684
    y : min = 0.000872666798, max = 0.00549005797, average = 0.00123342378
room_SIDE1
    y+ : min = 0.153596819, max = 7.84565792, average = 3.09173219
    y : min = 0.000544684643, max = 0.0025, average = 0.00234602486
manikin
    y+ : min = 0.021782463, max = 7.76651412, average = 0.821927492
    y : min = 4.97449872e-05, max = 0.00255854003, average = 0.000292020944

forceCoeffs forceCoeffs1 output:
    Cm    = -4492.73273
    Cd    = -98.69422
    Cl    = -8650.59941
    Cl(f) = -8818.03244
    Cl(r) = 167.433029

Time = 7022

DILUPBiCG:  Solving for Ux, Initial residual = 0.000201457267, Final residual = 9.81760357e-06, No Iterations 1
DILUPBiCG:  Solving for Uy, Initial residual = 9.3580956e-05, Final residual = 4.94452807e-08, No Iterations 2
DILUPBiCG:  Solving for Uz, Initial residual = 0.000201331052, Final residual = 6.08778092e-08, No Iterations 2
DILUPBiCG:  Solving for h, Initial residual = 4.32311382e-05, Final residual = 9.51340279e-07, No Iterations 1
GAMG:  Solving for p_rgh, Initial residual = 0.0023538324, Final residual = 1.24732578e-05, No Iterations 2
time step continuity errors : sum local = 1.11396818e-05, global = 3.66406399e-08, cumulative = 1.17452976e-06
rho max/min : 1.21151481 1.14723617
smoothSolver:  Solving for omega, Initial residual = 4.20609913e-06, Final residual = 1.59031927e-07, No Iterations 3
smoothSolver:  Solving for k, Initial residual = 0.000800532516, Final residual = 6.91957383e-05, No Iterations 2
ExecutionTime = 260.45 s  ClockTime = 261 s

wallHeatFlux wallHeatFlux output:

Wall heat fluxes [W]
room_SIDE2
    convective: -0.0303604026
    radiative:  -0
    total:      -0.0303604026
    Temperature : min = 293.062137, max = 293.814477, average = 293.550119
room_FLOOR
[...]
manikin
    convective: 128.812304
    radiative:  -0
    total:      128.812304
    Temperature : min = 307.15, max = 307.15, average = 307.15

yPlusRAS yplusRAS output:
    patch room_SIDE2 y+ : min = 0.145756517, max = 7.60015633, average = 3.09458394
    patch room_FLOOR y+ : min = 0.0758740649, max = 6.89403584, average = 2.3158017
    patch room_CEILING y+ : min = 0.2201682, max = 6.53363385, average = 2.61090508
    patch room_BACK y+ : min = 0.19921052, max = 51.7604818, average = 4.10003104
    patch room_SIDE1 y+ : min = 0.219876452, max = 7.73071419, average = 3.08391488
    patch manikin y+ : min = 0.0300199861, max = 7.77555304, average = 0.821161317

yPlusRASLowRe yplusRASLowRe output:
room_SIDE2
    y+ : min = 0.145756517, max = 7.60015633, average = 3.09458394
    y : min = 0.000544684214, max = 0.00250000001, average = 0.00234603179
room_FLOOR
    y+ : min = 0.0758740649, max = 6.89403584, average = 2.3158017
    y : min = 0.000139430812, max = 0.00249999971, average = 0.00161917022
room_CEILING
    y+ : min = 0.2201682, max = 6.53363385, average = 2.61090508
    y : min = 0.000647142072, max = 0.00249999973, average = 0.00231379284
room_BACK
    y+ : min = 0.19921052, max = 51.7604818, average = 4.10003104
    y : min = 0.000872666798, max = 0.00549005797, average = 0.00123342378
room_SIDE1
    y+ : min = 0.219876452, max = 7.73071419, average = 3.08391488
    y : min = 0.000544684643, max = 0.0025, average = 0.00234602486
manikin
    y+ : min = 0.0300199861, max = 7.77555304, average = 0.821161317
    y : min = 4.97449872e-05, max = 0.00255854003, average = 0.000292020944

forceCoeffs forceCoeffs1 output:
    Cm    = -4492.73548
    Cd    = -98.6945174
    Cl    = -8650.60181
    Cl(f) = -8818.03638
    Cl(r) = 167.434571

Time = 7996

DILUPBiCG:  Solving for Ux, Initial residual = 0.000223011897, Final residual = 9.65411093e-06, No Iterations 1
DILUPBiCG:  Solving for Uy, Initial residual = 9.7264786e-05, Final residual = 1.95551792e-06, No Iterations 1
DILUPBiCG:  Solving for Uz, Initial residual = 0.000215086516, Final residual = 1.40049562e-05, No Iterations 1
DILUPBiCG:  Solving for h, Initial residual = 4.15945559e-05, Final residual = 8.88172165e-07, No Iterations 1
GAMG:  Solving for p_rgh, Initial residual = 0.0021638979, Final residual = 1.15549238e-05, No Iterations 2
time step continuity errors : sum local = 1.03342979e-05, global = 1.31581999e-07, cumulative = 8.24060418e-06
rho max/min : 1.21154 1.14723611
smoothSolver:  Solving for omega, Initial residual = 4.26994692e-06, Final residual = 4.25066299e-07, No Iterations 2
smoothSolver:  Solving for k, Initial residual = 0.000711937079, Final residual = 6.45940349e-05, No Iterations 2
ExecutionTime = 10936.49 s  ClockTime = 10952 s

wallHeatFlux wallHeatFlux output:

Wall heat fluxes [W]
room_SIDE2
    convective: -0.0614876038
    radiative:  -0
    total:      -0.0614876038
    Temperature : min = 293.062137, max = 293.814477, average = 293.551315
room_FLOOR
    convective: 2.94382817
    radiative:  -0
    total:      2.94382817
    Temperature : min = 293.01183, max = 301.384519, average = 293.630373
room_CEILING
    convective: -1.44282312
    radiative:  -0
    total:      -1.44282312
    Temperature : min = 293.566312, max = 293.807015, average = 293.639673
room_BACK
    convective: -0.267515897
    radiative:  -0
    total:      -0.267515897
    Temperature : min = 293.01665, max = 293.821324, average = 293.566971
room_SIDE1
    convective: -0.068104738
    radiative:  -0
    total:      -0.068104738
    Temperature : min = 293.061805, max = 293.823874, average = 293.551067
manikin
    convective: 128.812963
    radiative:  -0
    total:      128.812963
    Temperature : min = 307.15, max = 307.15, average = 307.15

yPlusRAS yplusRAS output:
    patch room_SIDE2 y+ : min = 0.146978672, max = 7.60502313, average = 3.09446786
    patch room_FLOOR y+ : min = 0.075866004, max = 6.89972364, average = 2.31581976
    patch room_CEILING y+ : min = 0.229506952, max = 6.53363383, average = 2.61045546
    patch room_BACK y+ : min = 0.186303134, max = 51.7595981, average = 4.10012861
    patch room_SIDE1 y+ : min = 0.275779901, max = 7.72799676, average = 3.08408017
    patch manikin y+ : min = 0.0294403297, max = 7.77562095, average = 0.821163511

yPlusRASLowRe yplusRASLowRe output:
room_SIDE2
    y+ : min = 0.146978672, max = 7.60502313, average = 3.09446786
    y : min = 0.000544684214, max = 0.00250000001, average = 0.00234603179
room_FLOOR
    y+ : min = 0.075866004, max = 6.89972364, average = 2.31581976
    y : min = 0.000139430812, max = 0.00249999971, average = 0.00161917022
room_CEILING
    y+ : min = 0.229506952, max = 6.53363383, average = 2.61045546
    y : min = 0.000647142072, max = 0.00249999973, average = 0.00231379284
room_BACK
    y+ : min = 0.186303134, max = 51.7595981, average = 4.10012861
    y : min = 0.000872666798, max = 0.00549005797, average = 0.00123342378
room_SIDE1
    y+ : min = 0.275779901, max = 7.72799676, average = 3.08408017
    y : min = 0.000544684643, max = 0.0025, average = 0.00234602486
manikin
    y+ : min = 0.0294403297, max = 7.77562095, average = 0.821163511
    y : min = 4.97449872e-05, max = 0.00255854003, average = 0.000292020944

forceCoeffs forceCoeffs1 output:
    Cm    = -4492.73549
    Cd    = -98.6945239
    Cl    = -8650.60176
    Cl(f) = -8818.03637
    Cl(r) = 167.43461

Time = 7997

DILUPBiCG:  Solving for Ux, Initial residual = 0.000221940634, Final residual = 9.35749427e-06, No Iterations 1
DILUPBiCG:  Solving for Uy, Initial residual = 9.68834781e-05, Final residual = 1.94054441e-06, No Iterations 1
DILUPBiCG:  Solving for Uz, Initial residual = 0.000215226343, Final residual = 1.06295707e-05, No Iterations 1
DILUPBiCG:  Solving for h, Initial residual = 4.1527332e-05, Final residual = 8.88075984e-07, No Iterations 1
GAMG:  Solving for p_rgh, Initial residual = 0.00215614027, Final residual = 1.15975358e-05, No Iterations 2
time step continuity errors : sum local = 1.03727781e-05, global = 1.23541757e-07, cumulative = 8.36414593e-06
rho max/min : 1.21153884 1.14723611
smoothSolver:  Solving for omega, Initial residual = 4.27841185e-06, Final residual = 4.25330815e-07, No Iterations 2
smoothSolver:  Solving for k, Initial residual = 0.000710841898, Final residual = 6.49823548e-05, No Iterations 2
ExecutionTime = 10947.38 s  ClockTime = 10963 s

wallHeatFlux wallHeatFlux output:

Wall heat fluxes [W]
room_SIDE2
    convective: -0.060908973
    radiative:  -0
    total:      -0.060908973
    Temperature : min = 293.062137, max = 293.814477, average = 293.551297
room_FLOOR
    convective: 2.94378009
    radiative:  -0
    total:      2.94378009
    Temperature : min = 293.01183, max = 301.384515, average = 293.630374
room_CEILING
    convective: -1.44258626
    radiative:  -0
    total:      -1.44258626
    Temperature : min = 293.566197, max = 293.807015, average = 293.639653
room_BACK
    convective: -0.267447191
    radiative:  -0
    total:      -0.267447191
    Temperature : min = 293.016568, max = 293.821313, average = 293.566966
room_SIDE1
    convective: -0.0676299723
    radiative:  -0
    total:      -0.0676299723
    Temperature : min = 293.061805, max = 293.823874, average = 293.551054
manikin
    convective: 128.813695
    radiative:  -0
    total:      128.813695
    Temperature : min = 307.15, max = 307.15, average = 307.15

yPlusRAS yplusRAS output:
    patch room_SIDE2 y+ : min = 0.148758231, max = 7.61009926, average = 3.09437698
    patch room_FLOOR y+ : min = 0.0758595354, max = 6.90522233, average = 2.31584839
    patch room_CEILING y+ : min = 0.243346699, max = 6.53363381, average = 2.61005771
    patch room_BACK y+ : min = 0.178248508, max = 51.7587049, average = 4.10021841
    patch room_SIDE1 y+ : min = 0.288023151, max = 7.72546155, average = 3.08424984
    patch manikin y+ : min = 0.0288444127, max = 7.77568691, average = 0.821161007

yPlusRASLowRe yplusRASLowRe output:
room_SIDE2
    y+ : min = 0.148758231, max = 7.61009926, average = 3.09437698
    y : min = 0.000544684214, max = 0.00250000001, average = 0.00234603179
room_FLOOR
    y+ : min = 0.0758595354, max = 6.90522233, average = 2.31584839
    y : min = 0.000139430812, max = 0.00249999971, average = 0.00161917022
room_CEILING
    y+ : min = 0.243346699, max = 6.53363381, average = 2.61005771
    y : min = 0.000647142072, max = 0.00249999973, average = 0.00231379284
room_BACK
    y+ : min = 0.178248508, max = 51.7587049, average = 4.10021841
    y : min = 0.000872666798, max = 0.00549005797, average = 0.00123342378
room_SIDE1
    y+ : min = 0.288023151, max = 7.72546155, average = 3.08424984
    y : min = 0.000544684643, max = 0.0025, average = 0.00234602486
manikin
    y+ : min = 0.0288444127, max = 7.77568691, average = 0.821161007
    y : min = 4.97449872e-05, max = 0.00255854003, average = 0.000292020944

forceCoeffs forceCoeffs1 output:
    Cm    = -4492.73552
    Cd    = -98.6945584
    Cl    = -8650.60172
    Cl(f) = -8818.03638
    Cl(r) = 167.434659

Time = 7998

DILUPBiCG:  Solving for Ux, Initial residual = 0.000220904195, Final residual = 8.91629564e-06, No Iterations 1
DILUPBiCG:  Solving for Uy, Initial residual = 9.65546257e-05, Final residual = 1.92417276e-06, No Iterations 1
DILUPBiCG:  Solving for Uz, Initial residual = 0.000214933177, Final residual = 8.83316353e-06, No Iterations 1
DILUPBiCG:  Solving for h, Initial residual = 4.14524715e-05, Final residual = 8.87361891e-07, No Iterations 1
GAMG:  Solving for p_rgh, Initial residual = 0.00215140849, Final residual = 1.16268181e-05, No Iterations 2
time step continuity errors : sum local = 1.03994087e-05, global = 1.14611451e-07, cumulative = 8.47875738e-06
rho max/min : 1.2115376 1.1472361
smoothSolver:  Solving for omega, Initial residual = 4.2675984e-06, Final residual = 4.24962813e-07, No Iterations 2
smoothSolver:  Solving for k, Initial residual = 0.000711982499, Final residual = 6.54570732e-05, No Iterations 2
ExecutionTime = 10958.19 s  ClockTime = 10974 s

wallHeatFlux wallHeatFlux output:

Wall heat fluxes [W]
room_SIDE2
    convective: -0.0603752691
    radiative:  -0
    total:      -0.0603752691
    Temperature : min = 293.062137, max = 293.814477, average = 293.55128
room_FLOOR
    convective: 2.94375049
    radiative:  -0
    total:      2.94375049
    Temperature : min = 293.011829, max = 301.384511, average = 293.630375
room_CEILING
    convective: -1.44235679
    radiative:  -0
    total:      -1.44235679
    Temperature : min = 293.566139, max = 293.807015, average = 293.639634
room_BACK
    convective: -0.267323567
    radiative:  -0
    total:      -0.267323567
    Temperature : min = 293.016483, max = 293.8213, average = 293.56696
room_SIDE1
    convective: -0.0671369628
    radiative:  -0
    total:      -0.0671369628
    Temperature : min = 293.061805, max = 293.823874, average = 293.55104
manikin
    convective: 128.814415
    radiative:  -0
    total:      128.814415
    Temperature : min = 307.15, max = 307.15, average = 307.15

yPlusRAS yplusRAS output:
    patch room_SIDE2 y+ : min = 0.15262209, max = 7.61840357, average = 3.09430265
    patch room_FLOOR y+ : min = 0.0758555488, max = 6.9105251, average = 2.31586195
    patch room_CEILING y+ : min = 0.259515951, max = 6.53363379, average = 2.60962532
    patch room_BACK y+ : min = 0.180345011, max = 51.7578023, average = 4.10030405
    patch room_SIDE1 y+ : min = 0.275918889, max = 7.72310455, average = 3.08442287
    patch manikin y+ : min = 0.0282369144, max = 7.7757512, average = 0.821147036

yPlusRASLowRe yplusRASLowRe output:
room_SIDE2
    y+ : min = 0.15262209, max = 7.61840357, average = 3.09430265
    y : min = 0.000544684214, max = 0.00250000001, average = 0.00234603179
room_FLOOR
    y+ : min = 0.0758555488, max = 6.9105251, average = 2.31586195
    y : min = 0.000139430812, max = 0.00249999971, average = 0.00161917022
room_CEILING
    y+ : min = 0.259515951, max = 6.53363379, average = 2.60962532
    y : min = 0.000647142072, max = 0.00249999973, average = 0.00231379284
room_BACK
    y+ : min = 0.180345011, max = 51.7578023, average = 4.10030405
    y : min = 0.000872666798, max = 0.00549005797, average = 0.00123342378
room_SIDE1
    y+ : min = 0.275918889, max = 7.72310455, average = 3.08442287
    y : min = 0.000544684643, max = 0.0025, average = 0.00234602486
manikin
    y+ : min = 0.0282369144, max = 7.7757512, average = 0.821147036
    y : min = 4.97449872e-05, max = 0.00255854003, average = 0.000292020944

forceCoeffs forceCoeffs1 output:
    Cm    = -4492.73555
    Cd    = -98.6945977
    Cl    = -8650.60168
    Cl(f) = -8818.03639
    Cl(r) = 167.43471

Time = 7999

DILUPBiCG:  Solving for Ux, Initial residual = 0.000219926973, Final residual = 8.38381855e-06, No Iterations 1
DILUPBiCG:  Solving for Uy, Initial residual = 9.62672369e-05, Final residual = 1.90362346e-06, No Iterations 1
DILUPBiCG:  Solving for Uz, Initial residual = 0.000214308772, Final residual = 7.72675873e-06, No Iterations 1
DILUPBiCG:  Solving for h, Initial residual = 4.1366286e-05, Final residual = 8.86469619e-07, No Iterations 1
GAMG:  Solving for p_rgh, Initial residual = 0.00214676685, Final residual = 1.16485402e-05, No Iterations 2
time step continuity errors : sum local = 1.04194636e-05, global = 1.04828122e-07, cumulative = 8.58358551e-06
rho max/min : 1.21153635 1.1472361
smoothSolver:  Solving for omega, Initial residual = 4.27384312e-06, Final residual = 4.25042754e-07, No Iterations 2
smoothSolver:  Solving for k, Initial residual = 0.000715712503, Final residual = 6.60441016e-05, No Iterations 2
ExecutionTime = 10969.03 s  ClockTime = 10984 s

wallHeatFlux wallHeatFlux output:

Wall heat fluxes [W]
room_SIDE2
    convective: -0.0598867611
    radiative:  -0
    total:      -0.0598867611
    Temperature : min = 293.062137, max = 293.814477, average = 293.551264
room_FLOOR
    convective: 2.94374096
    radiative:  -0
    total:      2.94374096
    Temperature : min = 293.011829, max = 301.384508, average = 293.630376
room_CEILING
    convective: -1.44213763
    radiative:  -0
    total:      -1.44213763
    Temperature : min = 293.566132, max = 293.807015, average = 293.639615
room_BACK
    convective: -0.267237818
    radiative:  -0
    total:      -0.267237818
    Temperature : min = 293.016395, max = 293.821285, average = 293.566955
room_SIDE1
    convective: -0.0666275094
    radiative:  -0
    total:      -0.0666275094
    Temperature : min = 293.061805, max = 293.823874, average = 293.551026
manikin
    convective: 128.815103
    radiative:  -0
    total:      128.815103
    Temperature : min = 307.15, max = 307.15, average = 307.15

yPlusRAS yplusRAS output:
    patch room_SIDE2 y+ : min = 0.158784321, max = 7.62701702, average = 3.09424068
    patch room_FLOOR y+ : min = 0.0758541695, max = 6.91562455, average = 2.31590306
    patch room_CEILING y+ : min = 0.259256541, max = 6.53363377, average = 2.60913024
    patch room_BACK y+ : min = 0.193784805, max = 51.7568904, average = 4.10038556
    patch room_SIDE1 y+ : min = 0.265141216, max = 7.7209095, average = 3.08459485
    patch manikin y+ : min = 0.0276185816, max = 7.77581428, average = 0.821134282

yPlusRASLowRe yplusRASLowRe output:
room_SIDE2
    y+ : min = 0.158784321, max = 7.62701702, average = 3.09424068
    y : min = 0.000544684214, max = 0.00250000001, average = 0.00234603179
room_FLOOR
    y+ : min = 0.0758541695, max = 6.91562455, average = 2.31590306
    y : min = 0.000139430812, max = 0.00249999971, average = 0.00161917022
room_CEILING
    y+ : min = 0.259256541, max = 6.53363377, average = 2.60913024
    y : min = 0.000647142072, max = 0.00249999973, average = 0.00231379284
room_BACK
    y+ : min = 0.193784805, max = 51.7568904, average = 4.10038556
    y : min = 0.000872666798, max = 0.00549005797, average = 0.00123342378
room_SIDE1
    y+ : min = 0.265141216, max = 7.7209095, average = 3.08459485
    y : min = 0.000544684643, max = 0.0025, average = 0.00234602486
manikin
    y+ : min = 0.0276185816, max = 7.77581428, average = 0.821134282
    y : min = 4.97449872e-05, max = 0.00255854003, average = 0.000292020944

forceCoeffs forceCoeffs1 output:
    Cm    = -4492.73558
    Cd    = -98.6946268
    Cl    = -8650.60162
    Cl(f) = -8818.03639
    Cl(r) = 167.434766

Time = 8000

DILUPBiCG:  Solving for Ux, Initial residual = 0.000218866644, Final residual = 7.76667515e-06, No Iterations 1
DILUPBiCG:  Solving for Uy, Initial residual = 9.60112718e-05, Final residual = 1.88065365e-06, No Iterations 1
DILUPBiCG:  Solving for Uz, Initial residual = 0.0002135479, Final residual = 7.00223413e-06, No Iterations 1
DILUPBiCG:  Solving for h, Initial residual = 4.12888586e-05, Final residual = 8.85369774e-07, No Iterations 1
GAMG:  Solving for p_rgh, Initial residual = 0.00214134078, Final residual = 1.16928208e-05, No Iterations 2
time step continuity errors : sum local = 1.04598131e-05, global = 9.41497378e-08, cumulative = 8.67773524e-06
rho max/min : 1.21153515 1.1472361
smoothSolver:  Solving for omega, Initial residual = 4.28033963e-06, Final residual = 4.25224515e-07, No Iterations 2
smoothSolver:  Solving for k, Initial residual = 0.000722125639, Final residual = 6.67626346e-05, No Iterations 2
ExecutionTime = 10979.84 s  ClockTime = 10995 s

wallHeatFlux wallHeatFlux output:

Wall heat fluxes [W]
room_SIDE2
    convective: -0.0594426847
    radiative:  -0
    total:      -0.0594426847
    Temperature : min = 293.062137, max = 293.814477, average = 293.551249
room_FLOOR
    convective: 2.94375249
    radiative:  -0
    total:      2.94375249
    Temperature : min = 293.011829, max = 301.384506, average = 293.630375
room_CEILING
    convective: -1.4419302
    radiative:  -0
    total:      -1.4419302
    Temperature : min = 293.566172, max = 293.807015, average = 293.639597
room_BACK
    convective: -0.267152874
    radiative:  -0
    total:      -0.267152874
    Temperature : min = 293.016305, max = 293.821268, average = 293.566949
room_SIDE1
    convective: -0.0661007043
    radiative:  -0
    total:      -0.0661007043
    Temperature : min = 293.061805, max = 293.823874, average = 293.551012
manikin
    convective: 128.815815
    radiative:  -0
    total:      128.815815
    Temperature : min = 307.15, max = 307.15, average = 307.15

yPlusRAS yplusRAS output:
    patch room_SIDE2 y+ : min = 0.167441088, max = 7.63553943, average = 3.09419021
    patch room_FLOOR y+ : min = 0.075854667, max = 6.92050298, average = 2.31598164
    patch room_CEILING y+ : min = 0.263081439, max = 6.53363376, average = 2.60860332
    patch room_BACK y+ : min = 0.200035596, max = 51.7559695, average = 4.10046007
    patch room_SIDE1 y+ : min = 0.255560832, max = 7.71886565, average = 3.08476506
    patch manikin y+ : min = 0.0269926109, max = 7.7758755, average = 0.821137643

yPlusRASLowRe yplusRASLowRe output:
room_SIDE2
    y+ : min = 0.167441088, max = 7.63553943, average = 3.09419021
    y : min = 0.000544684214, max = 0.00250000001, average = 0.00234603179
room_FLOOR
    y+ : min = 0.075854667, max = 6.92050298, average = 2.31598164
    y : min = 0.000139430812, max = 0.00249999971, average = 0.00161917022
room_CEILING
    y+ : min = 0.263081439, max = 6.53363376, average = 2.60860332
    y : min = 0.000647142072, max = 0.00249999973, average = 0.00231379284
room_BACK
    y+ : min = 0.200035596, max = 51.7559695, average = 4.10046007
    y : min = 0.000872666798, max = 0.00549005797, average = 0.00123342378
room_SIDE1
    y+ : min = 0.255560832, max = 7.71886565, average = 3.08476506
    y : min = 0.000544684643, max = 0.0025, average = 0.00234602486
manikin
    y+ : min = 0.0269926109, max = 7.7758755, average = 0.821137643
    y : min = 4.97449872e-05, max = 0.00255854003, average = 0.000292020944

forceCoeffs forceCoeffs1 output:
    Cm    = -4492.7356
    Cd    = -98.6946235
    Cl    = -8650.60155
    Cl(f) = -8818.03637
    Cl(r) = 167.434825

End

Finalising parallel run
