/*---------------------------------------------------------------------------*\
| =========                 |                                                 |
| \\      /  F ield         | OpenFOAM: The Open Source CFD Toolbox           |
|  \\    /   O peration     | Version:  2.3.1                                 |
|   \\  /    A nd           | Web:      www.OpenFOAM.org                      |
|    \\/     M anipulation  |                                                 |
\*---------------------------------------------------------------------------*/
Build  : 2.3.1-bcfaaa7b8660
Exec   : buoyantSimpleFoam -parallel
Date   : May 19 2017
Time   : 11:38:29
Host   : "ubuntu"
PID    : 3399
Case   : /home/cong/Desktop/AIVC/Case5
nProcs : 4
Slaves : 
3
(
"ubuntu.3400"
"ubuntu.3401"
"ubuntu.3402"
)

Pstream initialized with:
    floatTransfer      : 0
    nProcsSimpleSum    : 0
    commsType          : nonBlocking
    polling iterations : 0
sigFpe : Enabling floating point exception trapping (FOAM_SIGFPE).
fileModificationChecking : Monitoring run-time modified files using timeStampMaster
allowSystemOperations : Allowing user-supplied system call operations

// * * * * * * * * * * * * * * * * * * * * * * * * * * * * * * * * * * * * * //
Create time

Create mesh for time = 6000


Reading g
Reading thermophysical properties

Selecting thermodynamics package 
{
    type            heRhoThermo;
    mixture         pureMixture;
    transport       const;
    thermo          hConst;
    equationOfState perfectGas;
    specie          specie;
    energy          sensibleEnthalpy;
}

Reading field U

Reading/calculating face flux field phi

Creating turbulence model

Selecting RAS turbulence model v2f
v2fCoeffs
{
    Cmu             0.22;
    CmuKEps         0.09;
    C1              1.4;
    C2              0.3;
    CL              0.23;
    Ceta            70;
    Ceps2           1.9;
    Ceps3           -0.33;
    sigmaK          1;
    sigmaEps        1.3;
    Prt             1;
}

Calculating field g.h

Reading field p_rgh

No finite volume options present

Selecting radiationModel none

SIMPLE: convergence criteria
    field "(p_rgh|p)"	 tolerance 1e-07
    field U	 tolerance 1e-08
    field h	 tolerance 1e-08
    field "(k|epsilon|omega)"	 tolerance 1e-08


Starting time loop

forceCoeffs forceCoeffs1:
    Not including porosity effects

Time = 6001

DILUPBiCG:  Solving for Ux, Initial residual = 0.00602126833, Final residual = 4.82842376e-05, No Iterations 1
DILUPBiCG:  Solving for Uy, Initial residual = 0.00692803841, Final residual = 5.69240538e-05, No Iterations 1
DILUPBiCG:  Solving for Uz, Initial residual = 0.00601714741, Final residual = 5.07898268e-05, No Iterations 1
DILUPBiCG:  Solving for h, Initial residual = 0.00418320594, Final residual = 4.01009675e-05, No Iterations 1
GAMG:  Solving for p_rgh, Initial residual = 0.127294893, Final residual = 0.00114286208, No Iterations 2
time step continuity errors : sum local = 0.0002402265, global = -4.18975872e-05, cumulative = -4.18975872e-05
rho max/min : 1.20356671 1.14723596
smoothSolver:  Solving for epsilon, Initial residual = 1, Final residual = 0.046070023, No Iterations 4
smoothSolver:  Solving for k, Initial residual = 1, Final residual = 0.0449984853, No Iterations 4
GAMG:  Solving for f, Initial residual = 1, Final residual = 0.00420168111, No Iterations 1
smoothSolver:  Solving for v2, Initial residual = 1, Final residual = 0.0640779947, No Iterations 5
ExecutionTime = 15.88 s  ClockTime = 16 s

wallHeatFlux wallHeatFlux output:

Wall heat fluxes [W]
room_SIDE2
    convective: 0
    radiative:  -0
    total:      0
    Temperature : min = 292.823844, max = 293.933256, average = 293.575562
room_FLOOR
    convective: 0
    radiative:  -0
    total:      0
    Temperature : min = 292.823541, max = 306.348505, average = 293.464116
room_CEILING
    convective: 0
    radiative:  -0
    total:      0
    Temperature : min = 293.932362, max = 293.932534, average = 293.932416
room_BACK
    convective: 0
    radiative:  -0
    total:      0
    Temperature : min = 292.817289, max = 293.932564, average = 293.603431
room_SIDE1
    convective: 0
    radiative:  -0
    total:      0
    Temperature : min = 292.823844, max = 293.933256, average = 293.572817
manikin
    convective: 201.381815
    radiative:  -0
    total:      201.381815
    Temperature : min = 307.15, max = 307.15, average = 307.15

yPlusRAS yplusRAS output:
    patch room_SIDE2 y+ : min = 0.279316547, max = 6.89429239, average = 3.49200475
    patch room_FLOOR y+ : min = 0.127974747, max = 7.19399247, average = 2.663941
    patch room_CEILING y+ : min = 0.196352818, max = 6.57334358, average = 3.27171863
    patch room_BACK y+ : min = 0.335125114, max = 51.6321734, average = 4.38973583
    patch room_SIDE1 y+ : min = 0.350943115, max = 6.6874821, average = 3.50608477
    patch manikin y+ : min = 0.0307115458, max = 7.8795221, average = 0.974944765

yPlusRASLowRe yplusRASLowRe output:
room_SIDE2
    y+ : min = 0.279316547, max = 6.89429239, average = 3.49200475
    y : min = 0.000544684214, max = 0.00250000001, average = 0.00234603179
room_FLOOR
    y+ : min = 0.127974747, max = 7.19399247, average = 2.663941
    y : min = 0.000139430812, max = 0.00249999971, average = 0.00161917022
room_CEILING
    y+ : min = 0.196352818, max = 6.57334358, average = 3.27171863
    y : min = 0.000647142072, max = 0.00249999973, average = 0.00231379284
room_BACK
    y+ : min = 0.335125114, max = 51.6321734, average = 4.38973583
    y : min = 0.000872666798, max = 0.00549005797, average = 0.00123342378
room_SIDE1
    y+ : min = 0.350943115, max = 6.6874821, average = 3.50608477
    y : min = 0.000544684643, max = 0.0025, average = 0.00234602486
manikin
    y+ : min = 0.0307115458, max = 7.8795221, average = 0.974944765
    y : min = 4.97449872e-05, max = 0.00255854003, average = 0.000292020944

forceCoeffs forceCoeffs1 output:
    Cm    = -4492.8351
    Cd    = -98.1612726
    Cl    = -8650.80476
    Cl(f) = -8818.23748
    Cl(r) = 167.432716

Time = 6002

DILUPBiCG:  Solving for Ux, Initial residual = 0.0151037986, Final residual = 6.57062117e-05, No Iterations 1
DILUPBiCG:  Solving for Uy, Initial residual = 0.0220259954, Final residual = 0.000108723905, No Iterations 1
DILUPBiCG:  Solving for Uz, Initial residual = 0.0152330597, Final residual = 6.21946852e-05, No Iterations 1
DILUPBiCG:  Solving for h, Initial residual = 0.00371427062, Final residual = 3.57868445e-05, No Iterations 1
GAMG:  Solving for p_rgh, Initial residual = 0.144539416, Final residual = 0.000713340642, No Iterations 3
time step continuity errors : sum local = 0.000150999274, global = -2.61722618e-06, cumulative = -4.45148134e-05
rho max/min : 1.2035679 1.14722992
smoothSolver:  Solving for epsilon, Initial residual = 0.811742295, Final residual = 0.0688002212, No Iterations 4
smoothSolver:  Solving for k, Initial residual = 0.521428449, Final residual = 0.0423027689, No Iterations 4
GAMG:  Solving for f, Initial residual = 0.994971392, Final residual = 0.00471977024, No Iterations 1
smoothSolver:  Solving for v2, Initial residual = 0.513390612, Final residual = 0.0212013024, No Iterations 3
bounding v2, min: -0.054213448 max: 514.42651 average: 0.00122996958
ExecutionTime = 29.85 s  ClockTime = 30 s

wallHeatFlux wallHeatFlux output:

Wall heat fluxes [W]
room_SIDE2
    convective: 0
    radiative:  -0
    total:      0
    Temperature : min = 292.823844, max = 293.933247, average = 293.575282
room_FLOOR
    convective: 0
    radiative:  -0
    total:      0
    Temperature : min = 292.823543, max = 306.204107, average = 293.476124
room_CEILING
    convective: 0
    radiative:  -0
    total:      0
    Temperature : min = 293.932361, max = 293.932534, average = 293.932415
room_BACK
    convective: 0
    radiative:  -0
    total:      0
    Temperature : min = 292.817766, max = 293.932564, average = 293.603221
room_SIDE1
    convective: 0
    radiative:  -0
    total:      0
    Temperature : min = 292.823844, max = 293.933247, average = 293.57263
manikin
    convective: 256.92571
    radiative:  -0
    total:      256.92571
    Temperature : min = 307.15, max = 307.15, average = 307.15

yPlusRAS yplusRAS output:
    patch room_SIDE2 y+ : min = 0.331536919, max = 6.91562168, average = 3.77884023
    patch room_FLOOR y+ : min = 0.152823599, max = 7.18170365, average = 2.888848
    patch room_CEILING y+ : min = 0.212417885, max = 6.62832921, average = 3.55841152
    patch room_BACK y+ : min = 0.326792768, max = 51.3856367, average = 4.5494537
    patch room_SIDE1 y+ : min = 0.338008593, max = 6.80124124, average = 3.79537827
    patch manikin y+ : min = 0.0429032805, max = 7.89286382, average = 1.07692869

yPlusRASLowRe yplusRASLowRe output:
room_SIDE2
    y+ : min = 0.331536919, max = 6.91562168, average = 3.77884023
    y : min = 0.000544684214, max = 0.00250000001, average = 0.00234603179
room_FLOOR
    y+ : min = 0.152823599, max = 7.18170365, average = 2.888848
    y : min = 0.000139430812, max = 0.00249999971, average = 0.00161917022
room_CEILING
    y+ : min = 0.212417885, max = 6.62832921, average = 3.55841152
    y : min = 0.000647142072, max = 0.00249999973, average = 0.00231379284
room_BACK
    y+ : min = 0.326792768, max = 51.3856367, average = 4.5494537
    y : min = 0.000872666798, max = 0.00549005797, average = 0.00123342378
room_SIDE1
    y+ : min = 0.338008593, max = 6.80124124, average = 3.79537827
    y : min = 0.000544684643, max = 0.0025, average = 0.00234602486
manikin
    y+ : min = 0.0429032805, max = 7.89286382, average = 1.07692869
    y : min = 4.97449872e-05, max = 0.00255854003, average = 0.000292020944

forceCoeffs forceCoeffs1 output:
    Cm    = -4492.78269
    Cd    = -97.8831906
    Cl    = -8650.89253
    Cl(f) = -8818.22895
    Cl(r) = 167.33642

Time = 6003

DILUPBiCG:  Solving for Ux, Initial residual = 0.00881827845, Final residual = 5.90758115e-05, No Iterations 1
DILUPBiCG:  Solving for Uy, Initial residual = 0.0136624038, Final residual = 0.000217418637, No Iterations 1
DILUPBiCG:  Solving for Uz, Initial residual = 0.00895121775, Final residual = 5.63838539e-05, No Iterations 1
DILUPBiCG:  Solving for h, Initial residual = 0.00345279042, Final residual = 3.23591854e-05, No Iterations 1
GAMG:  Solving for p_rgh, Initial residual = 0.107315849, Final residual = 0.000683790229, No Iterations 2
time step continuity errors : sum local = 0.000167053109, global = -2.50396775e-05, cumulative = -6.95544909e-05
rho max/min : 1.20447336 1.14519458
smoothSolver:  Solving for epsilon, Initial residual = 0.609813017, Final residual = 0.0557396059, No Iterations 4
smoothSolver:  Solving for k, Initial residual = 0.200870677, Final residual = 0.0136958244, No Iterations 4
GAMG:  Solving for f, Initial residual = 0.130925743, Final residual = 0.000653166173, No Iterations 1
smoothSolver:  Solving for v2, Initial residual = 0.173567881, Final residual = 0.0128002899, No Iterations 3
bounding v2, min: -1.17922282 max: 1170.74653 average: 0.00142751733
ExecutionTime = 43.23 s  ClockTime = 43 s

wallHeatFlux wallHeatFlux output:

Wall heat fluxes [W]
room_SIDE2
    convective: 0
    radiative:  -0
    total:      0
    Temperature : min = 292.823844, max = 293.93324, average = 293.575044
room_FLOOR
    convective: 0
    radiative:  -0
    total:      0
    Temperature : min = 292.823556, max = 306.081024, average = 293.486763
room_CEILING
    convective: 0
    radiative:  -0
    total:      0
    Temperature : min = 293.932361, max = 293.932534, average = 293.932415
room_BACK
    convective: 0
    radiative:  -0
    total:      0
    Temperature : min = 292.818189, max = 293.932564, average = 293.603046
room_SIDE1
    convective: 0
    radiative:  -0
    total:      0
    Temperature : min = 292.823844, max = 293.93324, average = 293.572474
manikin
    convective: 301.458673
    radiative:  -0
    total:      301.458673
    Temperature : min = 307.15, max = 307.15, average = 307.15

yPlusRAS yplusRAS output:
    patch room_SIDE2 y+ : min = 0.357949654, max = 7.00230737, average = 3.97809358
    patch room_FLOOR y+ : min = 0.148282366, max = 7.19478117, average = 3.04601358
    patch room_CEILING y+ : min = 0.290021006, max = 6.67281245, average = 3.75707113
    patch room_BACK y+ : min = 0.421114951, max = 51.0913409, average = 4.65927726
    patch room_SIDE1 y+ : min = 0.374240012, max = 6.88840089, average = 3.99648703
    patch manikin y+ : min = 0.0425611417, max = 7.94329766, average = 1.14899276

yPlusRASLowRe yplusRASLowRe output:
room_SIDE2
    y+ : min = 0.357949654, max = 7.00230737, average = 3.97809358
    y : min = 0.000544684214, max = 0.00250000001, average = 0.00234603179
room_FLOOR
    y+ : min = 0.148282366, max = 7.19478117, average = 3.04601358
    y : min = 0.000139430812, max = 0.00249999971, average = 0.00161917022
room_CEILING
    y+ : min = 0.290021006, max = 6.67281245, average = 3.75707113
    y : min = 0.000647142072, max = 0.00249999973, average = 0.00231379284
room_BACK
    y+ : min = 0.421114951, max = 51.0913409, average = 4.65927726
    y : min = 0.000872666798, max = 0.00549005797, average = 0.00123342378
room_SIDE1
    y+ : min = 0.374240012, max = 6.88840089, average = 3.99648703
    y : min = 0.000544684643, max = 0.0025, average = 0.00234602486
manikin
    y+ : min = 0.0425611417, max = 7.94329766, average = 1.14899276
    y : min = 4.97449872e-05, max = 0.00255854003, average = 0.000292020944

forceCoeffs forceCoeffs1 output:
    Cm    = -4492.67716
    Cd    = -97.9564624
    Cl    = -8650.89916
    Cl(f) = -8818.12674
    Cl(r) = 167.227579

Time = 6004

DILUPBiCG:  Solving for Ux, Initial residual = 0.00648138033, Final residual = 4.48108304e-05, No Iterations 1
DILUPBiCG:  Solving for Uy, Initial residual = 0.0120453782, Final residual = 0.000124199285, No Iterations 1
DILUPBiCG:  Solving for Uz, Initial residual = 0.00623105851, Final residual = 4.04805371e-05, No Iterations 1
DILUPBiCG:  Solving for h, Initial residual = 0.00323360699, Final residual = 3.00383479e-05, No Iterations 1
GAMG:  Solving for p_rgh, Initial residual = 0.116641015, Final residual = 0.000867671851, No Iterations 2
time step continuity errors : sum local = 0.000235072573, global = -1.17205995e-05, cumulative = -8.12750904e-05
rho max/min : 1.20420289 1.1434612
smoothSolver:  Solving for epsilon, Initial residual = 0.491967489, Final residual = 0.0392869439, No Iterations 4
smoothSolver:  Solving for k, Initial residual = 0.123242492, Final residual = 0.00683338617, No Iterations 4
GAMG:  Solving for f, Initial residual = 0.0960675086, Final residual = 0.000455046597, No Iterations 1
smoothSolver:  Solving for v2, Initial residual = 0.0934017272, Final residual = 0.00866150703, No Iterations 3
bounding v2, min: -0.0202496357 max: 641.841342 average: 0.00161322938
ExecutionTime = 56.55 s  ClockTime = 56 s

wallHeatFlux wallHeatFlux output:

Wall heat fluxes [W]
room_SIDE2
    convective: 0
    radiative:  -0
    total:      0
    Temperature : min = 292.823844, max = 293.933233, average = 293.574837
room_FLOOR
    convective: 0
    radiative:  -0
    total:      0
    Temperature : min = 292.823588, max = 305.974459, average = 293.496308
room_CEILING
    convective: 0
    radiative:  -0
    total:      0
    Temperature : min = 293.932361, max = 293.932534, average = 293.932415
room_BACK
    convective: 0
    radiative:  -0
    total:      0
    Temperature : min = 292.818577, max = 293.932563, average = 293.602896
room_SIDE1
    convective: 0
    radiative:  -0
    total:      0
    Temperature : min = 292.823844, max = 293.933233, average = 293.572341
manikin
    convective: 338.379256
    radiative:  -0
    total:      338.379256
    Temperature : min = 307.15, max = 307.15, average = 307.15

yPlusRAS yplusRAS output:
    patch room_SIDE2 y+ : min = 0.342324899, max = 7.0596032, average = 4.12432106
    patch room_FLOOR y+ : min = 0.144384207, max = 7.19557641, average = 3.16237052
    patch room_CEILING y+ : min = 0.367064736, max = 6.68816399, average = 3.90419069
    patch room_BACK y+ : min = 0.390084241, max = 51.0730564, average = 4.7370307
    patch room_SIDE1 y+ : min = 0.37593093, max = 6.94506672, average = 4.14399163
    patch manikin y+ : min = 0.0408267185, max = 8.00708583, average = 1.20290501

yPlusRASLowRe yplusRASLowRe output:
room_SIDE2
    y+ : min = 0.342324899, max = 7.0596032, average = 4.12432106
    y : min = 0.000544684214, max = 0.00250000001, average = 0.00234603179
room_FLOOR
    y+ : min = 0.144384207, max = 7.19557641, average = 3.16237052
    y : min = 0.000139430812, max = 0.00249999971, average = 0.00161917022
room_CEILING
    y+ : min = 0.367064736, max = 6.68816399, average = 3.90419069
    y : min = 0.000647142072, max = 0.00249999973, average = 0.00231379284
room_BACK
    y+ : min = 0.390084241, max = 51.0730564, average = 4.7370307
    y : min = 0.000872666798, max = 0.00549005797, average = 0.00123342378
room_SIDE1
    y+ : min = 0.37593093, max = 6.94506672, average = 4.14399163
    y : min = 0.000544684643, max = 0.0025, average = 0.00234602486
manikin
    y+ : min = 0.0408267185, max = 8.00708583, average = 1.20290501
    y : min = 4.97449872e-05, max = 0.00255854003, average = 0.000292020944

forceCoeffs forceCoeffs1 output:
    Cm    = -4492.66799
    Cd    = -97.9351756
    Cl    = -8650.93088
    Cl(f) = -8818.13343
    Cl(r) = 167.202547

Time = 6005

DILUPBiCG:  Solving for Ux, Initial residual = 0.00477477591, Final residual = 3.84083317e-05, No Iterations 1
DILUPBiCG:  Solving for Uy, Initial residual = 0.00964309406, Final residual = 0.000277797663, No Iterations 1
DILUPBiCG:  Solving for Uz, Initial residual = 0.00447803506, Final residual = 3.1882773e-05, No Iterations 1
DILUPBiCG:  Solving for h, Initial residual = 0.00304103598, Final residual = 2.856114e-05, No Iterations 1
GAMG:  Solving for p_rgh, Initial residual = 0.098374403, Final residual = 0.000696755525, No Iterations 2
time step continuity errors : sum local = 0.000189369269, global = 2.62576064e-05, cumulative = -5.50174841e-05
rho max/min : 1.20361603 1.14338724
smoothSolver:  Solving for epsilon, Initial residual = 0.351731906, Final residual = 0.0229921296, No Iterations 4
smoothSolver:  Solving for k, Initial residual = 0.0811572425, Final residual = 0.00771070355, No Iterations 3
GAMG:  Solving for f, Initial residual = 0.0688236914, Final residual = 0.000334103782, No Iterations 1
smoothSolver:  Solving for v2, Initial residual = 0.0667393499, Final residual = 0.00310345021, No Iterations 4
ExecutionTime = 69.92 s  ClockTime = 70 s

wallHeatFlux wallHeatFlux output:

Wall heat fluxes [W]
room_SIDE2
    convective: 0
    radiative:  -0
    total:      0
    Temperature : min = 292.823844, max = 293.933226, average = 293.574654
room_FLOOR
    convective: 0
    radiative:  -0
    total:      0
    Temperature : min = 292.823612, max = 305.878656, average = 293.504978
room_CEILING
    convective: 0
    radiative:  -0
    total:      0
    Temperature : min = 293.932361, max = 293.932534, average = 293.932415
room_BACK
    convective: 0
    radiative:  -0
    total:      0
    Temperature : min = 292.818866, max = 293.932563, average = 293.602766
room_SIDE1
    convective: 0
    radiative:  -0
    total:      0
    Temperature : min = 292.823844, max = 293.933226, average = 293.572225
manikin
    convective: 369.771189
    radiative:  -0
    total:      369.771189
    Temperature : min = 307.15, max = 307.15, average = 307.15

yPlusRAS yplusRAS output:
    patch room_SIDE2 y+ : min = 0.380978923, max = 7.09774402, average = 4.23537216
    patch room_FLOOR y+ : min = 0.140743646, max = 7.18604959, average = 3.25144753
    patch room_CEILING y+ : min = 0.296232895, max = 6.69021646, average = 4.01673854
    patch room_BACK y+ : min = 0.40640622, max = 51.15151, average = 4.79404683
    patch room_SIDE1 y+ : min = 0.371439831, max = 6.98142746, average = 4.25599037
    patch manikin y+ : min = 0.0411414076, max = 8.05661006, average = 1.24483306

yPlusRASLowRe yplusRASLowRe output:
room_SIDE2
    y+ : min = 0.380978923, max = 7.09774402, average = 4.23537216
    y : min = 0.000544684214, max = 0.00250000001, average = 0.00234603179
room_FLOOR
    y+ : min = 0.140743646, max = 7.18604959, average = 3.25144753
    y : min = 0.000139430812, max = 0.00249999971, average = 0.00161917022
room_CEILING
    y+ : min = 0.296232895, max = 6.69021646, average = 4.01673854
    y : min = 0.000647142072, max = 0.00249999973, average = 0.00231379284
room_BACK
    y+ : min = 0.40640622, max = 51.15151, average = 4.79404683
    y : min = 0.000872666798, max = 0.00549005797, average = 0.00123342378
room_SIDE1
    y+ : min = 0.371439831, max = 6.98142746, average = 4.25599037
    y : min = 0.000544684643, max = 0.0025, average = 0.00234602486
manikin
    y+ : min = 0.0411414076, max = 8.05661006, average = 1.24483306
    y : min = 4.97449872e-05, max = 0.00255854003, average = 0.000292020944

forceCoeffs forceCoeffs1 output:
    Cm    = -4492.71221
    Cd    = -97.9602056
    Cl    = -8650.91461
    Cl(f) = -8818.16951
    Cl(r) = 167.254902

Time = 6006

DILUPBiCG:  Solving for Ux, Initial residual = 0.00391547624, Final residual = 5.41464453e-05, No Iterations 1
DILUPBiCG:  Solving for Uy, Initial residual = 0.00800535789, Final residual = 8.63735386e-05, No Iterations 1
DILUPBiCG:  Solving for Uz, Initial residual = 0.00360334626, Final residual = 3.47990314e-05, No Iterations 1
DILUPBiCG:  Solving for h, Initial residual = 0.00287057817, Final residual = 2.75413634e-05, No Iterations 1
GAMG:  Solving for p_rgh, Initial residual = 0.0748864821, Final residual = 0.000463872096, No Iterations 2
time step continuity errors : sum local = 0.0001242258, global = 4.02255467e-05, cumulative = -1.47919374e-05
rho max/min : 1.20357057 1.1431229
smoothSolver:  Solving for epsilon, Initial residual = 0.231956002, Final residual = 0.0118010098, No Iterations 4
smoothSolver:  Solving for k, Initial residual = 0.0607759413, Final residual = 0.0049776704, No Iterations 3
GAMG:  Solving for f, Initial residual = 0.0574401866, Final residual = 0.000276206235, No Iterations 1
smoothSolver:  Solving for v2, Initial residual = 0.0534884184, Final residual = 0.0027374879, No Iterations 4
ExecutionTime = 83.16 s  ClockTime = 83 s

wallHeatFlux wallHeatFlux output:

Wall heat fluxes [W]
room_SIDE2
    convective: 0
    radiative:  -0
    total:      0
    Temperature : min = 292.823844, max = 293.933219, average = 293.574489
room_FLOOR
    convective: 0
    radiative:  -0
    total:      0
    Temperature : min = 292.823647, max = 305.789948, average = 293.512972
room_CEILING
    convective: 0
    radiative:  -0
    total:      0
    Temperature : min = 293.932361, max = 293.932534, average = 293.932415
room_BACK
    convective: 0
    radiative:  -0
    total:      0
    Temperature : min = 292.819153, max = 293.932563, average = 293.602651
room_SIDE1
    convective: 0
    radiative:  -0
    total:      0
    Temperature : min = 292.823844, max = 293.933219, average = 293.572121
manikin
    convective: 397.034055
    radiative:  -0
    total:      397.034055
    Temperature : min = 307.15, max = 307.15, average = 307.15

yPlusRAS yplusRAS output:
    patch room_SIDE2 y+ : min = 0.386623978, max = 7.12276759, average = 4.32347545
    patch room_FLOOR y+ : min = 0.138214085, max = 7.16956007, average = 3.32237875
    patch room_CEILING y+ : min = 0.282822403, max = 6.68853276, average = 4.10622165
    patch room_BACK y+ : min = 0.397814205, max = 51.2310701, average = 4.83743333
    patch room_SIDE1 y+ : min = 0.368407852, max = 7.00440539, average = 4.34418368
    patch manikin y+ : min = 0.0408884867, max = 8.07453032, average = 1.27867952

yPlusRASLowRe yplusRASLowRe output:
room_SIDE2
    y+ : min = 0.386623978, max = 7.12276759, average = 4.32347545
    y : min = 0.000544684214, max = 0.00250000001, average = 0.00234603179
room_FLOOR
    y+ : min = 0.138214085, max = 7.16956007, average = 3.32237875
    y : min = 0.000139430812, max = 0.00249999971, average = 0.00161917022
room_CEILING
    y+ : min = 0.282822403, max = 6.68853276, average = 4.10622165
    y : min = 0.000647142072, max = 0.00249999973, average = 0.00231379284
room_BACK
    y+ : min = 0.397814205, max = 51.2310701, average = 4.83743333
    y : min = 0.000872666798, max = 0.00549005797, average = 0.00123342378
room_SIDE1
    y+ : min = 0.368407852, max = 7.00440539, average = 4.34418368
    y : min = 0.000544684643, max = 0.0025, average = 0.00234602486
manikin
    y+ : min = 0.0408884867, max = 8.07453032, average = 1.27867952
    y : min = 4.97449872e-05, max = 0.00255854003, average = 0.000292020944

forceCoeffs forceCoeffs1 output:
    Cm    = -4492.76449
    Cd    = -97.9535903
    Cl    = -8650.82538
    Cl(f) = -8818.17718
    Cl(r) = 167.351797

Time = 6007

DILUPBiCG:  Solving for Ux, Initial residual = 0.00344085148, Final residual = 0.000216978427, No Iterations 1
DILUPBiCG:  Solving for Uy, Initial residual = 0.00704229304, Final residual = 9.75780597e-05, No Iterations 1
DILUPBiCG:  Solving for Uz, Initial residual = 0.0031304654, Final residual = 8.13294985e-05, No Iterations 1
DILUPBiCG:  Solving for h, Initial residual = 0.00271933971, Final residual = 2.67340224e-05, No Iterations 1
GAMG:  Solving for p_rgh, Initial residual = 0.0569833426, Final residual = 0.000317510537, No Iterations 2
time step continuity errors : sum local = 8.40786738e-05, global = 3.33997301e-05, cumulative = 1.86077927e-05
rho max/min : 1.20356417 1.1436259
smoothSolver:  Solving for epsilon, Initial residual = 0.158008298, Final residual = 0.014803506, No Iterations 3
smoothSolver:  Solving for k, Initial residual = 0.0557467823, Final residual = 0.00537704815, No Iterations 3
GAMG:  Solving for f, Initial residual = 0.0536056233, Final residual = 0.000252774934, No Iterations 1
smoothSolver:  Solving for v2, Initial residual = 0.0458005747, Final residual = 0.00257054508, No Iterations 4
ExecutionTime = 96.41 s  ClockTime = 96 s

wallHeatFlux wallHeatFlux output:

Wall heat fluxes [W]
room_SIDE2
    convective: 0
    radiative:  -0
    total:      0
    Temperature : min = 292.823844, max = 293.933213, average = 293.574341
room_FLOOR
    convective: 0
    radiative:  -0
    total:      0
    Temperature : min = 292.823671, max = 305.70726, average = 293.52042
room_CEILING
    convective: 0
    radiative:  -0
    total:      0
    Temperature : min = 293.932361, max = 293.932534, average = 293.932415
room_BACK
    convective: 0
    radiative:  -0
    total:      0
    Temperature : min = 292.81943, max = 293.932563, average = 293.602549
room_SIDE1
    convective: 0
    radiative:  -0
    total:      0
    Temperature : min = 292.823844, max = 293.933213, average = 293.572026
manikin
    convective: 421.128994
    radiative:  -0
    total:      421.128994
    Temperature : min = 307.15, max = 307.15, average = 307.15

yPlusRAS yplusRAS output:
    patch room_SIDE2 y+ : min = 0.423930871, max = 7.13803883, average = 4.39556757
    patch room_FLOOR y+ : min = 0.139158165, max = 7.14826456, average = 3.38062065
    patch room_CEILING y+ : min = 0.317716314, max = 6.68705487, average = 4.17935184
    patch room_BACK y+ : min = 0.367926617, max = 51.2988789, average = 4.87165456
    patch room_SIDE1 y+ : min = 0.357591507, max = 7.02240567, average = 4.41599039
    patch manikin y+ : min = 0.0345971898, max = 8.06897401, average = 1.30665442

yPlusRASLowRe yplusRASLowRe output:
room_SIDE2
    y+ : min = 0.423930871, max = 7.13803883, average = 4.39556757
    y : min = 0.000544684214, max = 0.00250000001, average = 0.00234603179
room_FLOOR
    y+ : min = 0.139158165, max = 7.14826456, average = 3.38062065
    y : min = 0.000139430812, max = 0.00249999971, average = 0.00161917022
room_CEILING
    y+ : min = 0.317716314, max = 6.68705487, average = 4.17935184
    y : min = 0.000647142072, max = 0.00249999973, average = 0.00231379284
room_BACK
    y+ : min = 0.367926617, max = 51.2988789, average = 4.87165456
    y : min = 0.000872666798, max = 0.00549005797, average = 0.00123342378
room_SIDE1
    y+ : min = 0.357591507, max = 7.02240567, average = 4.41599039
    y : min = 0.000544684643, max = 0.0025, average = 0.00234602486
manikin
    y+ : min = 0.0345971898, max = 8.06897401, average = 1.30665442
    y : min = 4.97449872e-05, max = 0.00255854003, average = 0.000292020944

forceCoeffs forceCoeffs1 output:
    Cm    = -4492.78363
    Cd    = -97.8859657
    Cl    = -8650.75036
    Cl(f) = -8818.15881
    Cl(r) = 167.408454

Time = 6008

DILUPBiCG:  Solving for Ux, Initial residual = 0.00308627333, Final residual = 0.000163710364, No Iterations 1
DILUPBiCG:  Solving for Uy, Initial residual = 0.00627107585, Final residual = 0.000200327958, No Iterations 1
DILUPBiCG:  Solving for Uz, Initial residual = 0.00276783048, Final residual = 6.70999494e-07, No Iterations 2
DILUPBiCG:  Solving for h, Initial residual = 0.00258507724, Final residual = 2.60330902e-05, No Iterations 1
GAMG:  Solving for p_rgh, Initial residual = 0.0436095426, Final residual = 0.000271901906, No Iterations 2
time step continuity errors : sum local = 7.12601514e-05, global = 1.31718653e-05, cumulative = 3.1779658e-05
rho max/min : 1.20355854 1.1442196
smoothSolver:  Solving for epsilon, Initial residual = 0.11190467, Final residual = 0.00839619971, No Iterations 3
smoothSolver:  Solving for k, Initial residual = 0.0556132364, Final residual = 0.00272058912, No Iterations 4
GAMG:  Solving for f, Initial residual = 0.0532974799, Final residual = 0.000243549813, No Iterations 1
smoothSolver:  Solving for v2, Initial residual = 0.0413026535, Final residual = 0.00241141678, No Iterations 4
ExecutionTime = 110.01 s  ClockTime = 110 s

wallHeatFlux wallHeatFlux output:

Wall heat fluxes [W]
room_SIDE2
    convective: 0
    radiative:  -0
    total:      0
    Temperature : min = 292.823844, max = 293.933207, average = 293.574205
room_FLOOR
    convective: 0
    radiative:  -0
    total:      0
    Temperature : min = 292.823711, max = 305.62988, average = 293.527412
room_CEILING
    convective: 0
    radiative:  -0
    total:      0
    Temperature : min = 293.932361, max = 293.932534, average = 293.932415
room_BACK
    convective: 0
    radiative:  -0
    total:      0
    Temperature : min = 292.819682, max = 293.932563, average = 293.602456
room_SIDE1
    convective: 0
    radiative:  -0
    total:      0
    Temperature : min = 292.823844, max = 293.933207, average = 293.57194
manikin
    convective: 442.730569
    radiative:  -0
    total:      442.730569
    Temperature : min = 307.15, max = 307.15, average = 307.15

yPlusRAS yplusRAS output:
    patch room_SIDE2 y+ : min = 0.466697864, max = 7.14672792, average = 4.45608094
    patch room_FLOOR y+ : min = 0.104277634, max = 7.12306776, average = 3.42975689
    patch room_CEILING y+ : min = 0.2826951, max = 6.68622673, average = 4.24055661
    patch room_BACK y+ : min = 0.399847558, max = 51.3634501, average = 4.89963505
    patch room_SIDE1 y+ : min = 0.347126494, max = 7.03550813, average = 4.47606807
    patch manikin y+ : min = 0.0261882302, max = 8.0477299, average = 1.33046576

yPlusRASLowRe yplusRASLowRe output:
room_SIDE2
    y+ : min = 0.466697864, max = 7.14672792, average = 4.45608094
    y : min = 0.000544684214, max = 0.00250000001, average = 0.00234603179
room_FLOOR
    y+ : min = 0.104277634, max = 7.12306776, average = 3.42975689
    y : min = 0.000139430812, max = 0.00249999971, average = 0.00161917022
room_CEILING
    y+ : min = 0.2826951, max = 6.68622673, average = 4.24055661
    y : min = 0.000647142072, max = 0.00249999973, average = 0.00231379284
room_BACK
    y+ : min = 0.399847558, max = 51.3634501, average = 4.89963505
    y : min = 0.000872666798, max = 0.00549005797, average = 0.00123342378
room_SIDE1
    y+ : min = 0.347126494, max = 7.03550813, average = 4.47606807
    y : min = 0.000544684643, max = 0.0025, average = 0.00234602486
manikin
    y+ : min = 0.0261882302, max = 8.0477299, average = 1.33046576
    y : min = 4.97449872e-05, max = 0.00255854003, average = 0.000292020944

forceCoeffs forceCoeffs1 output:
    Cm    = -4492.78712
    Cd    = -97.8023249
    Cl    = -8650.74652
    Cl(f) = -8818.16038
    Cl(r) = 167.413866

Time = 6009

DILUPBiCG:  Solving for Ux, Initial residual = 0.00280309979, Final residual = 7.94536726e-05, No Iterations 1
DILUPBiCG:  Solving for Uy, Initial residual = 0.0056792279, Final residual = 0.000366940891, No Iterations 1
DILUPBiCG:  Solving for Uz, Initial residual = 0.0024783397, Final residual = 0.000113366262, No Iterations 1
DILUPBiCG:  Solving for h, Initial residual = 0.00246500095, Final residual = 2.53874616e-05, No Iterations 1
GAMG:  Solving for p_rgh, Initial residual = 0.0356074562, Final residual = 0.000251415382, No Iterations 2
time step continuity errors : sum local = 6.52024032e-05, global = -6.84117278e-06, cumulative = 2.49384852e-05
rho max/min : 1.20355683 1.14444443
smoothSolver:  Solving for epsilon, Initial residual = 0.0788462681, Final residual = 0.00465614634, No Iterations 3
smoothSolver:  Solving for k, Initial residual = 0.0563670853, Final residual = 0.00274156627, No Iterations 4
GAMG:  Solving for f, Initial residual = 0.0544643459, Final residual = 0.000251942317, No Iterations 1
smoothSolver:  Solving for v2, Initial residual = 0.0379693653, Final residual = 0.00227972414, No Iterations 4
ExecutionTime = 124.13 s  ClockTime = 124 s

wallHeatFlux wallHeatFlux output:

Wall heat fluxes [W]
room_SIDE2
    convective: 0
    radiative:  -0
    total:      0
    Temperature : min = 292.823844, max = 293.933201, average = 293.574079
room_FLOOR
    convective: 0
    radiative:  -0
    total:      0
    Temperature : min = 292.823774, max = 305.556042, average = 293.534012
room_CEILING
    convective: 0
    radiative:  -0
    total:      0
    Temperature : min = 293.932361, max = 293.932534, average = 293.932415
room_BACK
    convective: 0
    radiative:  -0
    total:      0
    Temperature : min = 292.819897, max = 293.932563, average = 293.602372
room_SIDE1
    convective: 0
    radiative:  -0
    total:      0
    Temperature : min = 292.823844, max = 293.933201, average = 293.57186
manikin
    convective: 462.323041
    radiative:  -0
    total:      462.323041
    Temperature : min = 307.15, max = 307.15, average = 307.15

yPlusRAS yplusRAS output:
    patch room_SIDE2 y+ : min = 0.491168574, max = 7.15058882, average = 4.50803828
    patch room_FLOOR y+ : min = 0.153449883, max = 7.09432201, average = 3.47217398
    patch room_CEILING y+ : min = 0.299826186, max = 6.68565816, average = 4.29298454
    patch room_BACK y+ : min = 0.448159707, max = 51.4280811, average = 4.92274737
    patch room_SIDE1 y+ : min = 0.341780406, max = 7.04324154, average = 4.52751135
    patch manikin y+ : min = 0.0188995689, max = 8.02024438, average = 1.35110664

yPlusRASLowRe yplusRASLowRe output:
room_SIDE2
    y+ : min = 0.491168574, max = 7.15058882, average = 4.50803828
    y : min = 0.000544684214, max = 0.00250000001, average = 0.00234603179
room_FLOOR
    y+ : min = 0.153449883, max = 7.09432201, average = 3.47217398
    y : min = 0.000139430812, max = 0.00249999971, average = 0.00161917022
room_CEILING
    y+ : min = 0.299826186, max = 6.68565816, average = 4.29298454
    y : min = 0.000647142072, max = 0.00249999973, average = 0.00231379284
room_BACK
    y+ : min = 0.448159707, max = 51.4280811, average = 4.92274737
    y : min = 0.000872666798, max = 0.00549005797, average = 0.00123342378
room_SIDE1
    y+ : min = 0.341780406, max = 7.04324154, average = 4.52751135
    y : min = 0.000544684643, max = 0.0025, average = 0.00234602486
manikin
    y+ : min = 0.0188995689, max = 8.02024438, average = 1.35110664
    y : min = 4.97449872e-05, max = 0.00255854003, average = 0.000292020944

forceCoeffs forceCoeffs1 output:
    Cm    = -4492.79462
    Cd    = -97.7416891
    Cl    = -8650.77794
    Cl(f) = -8818.18359
    Cl(r) = 167.405645

Time = 6010

DILUPBiCG:  Solving for Ux, Initial residual = 0.00259667977, Final residual = 5.74604343e-05, No Iterations 1
DILUPBiCG:  Solving for Uy, Initial residual = 0.00517849454, Final residual = 3.52862363e-06, No Iterations 2
DILUPBiCG:  Solving for Uz, Initial residual = 0.00224518761, Final residual = 6.17898446e-05, No Iterations 1
DILUPBiCG:  Solving for h, Initial residual = 0.002356464, Final residual = 2.47755032e-05, No Iterations 1
GAMG:  Solving for p_rgh, Initial residual = 0.0312749554, Final residual = 0.000243511419, No Iterations 2
time step continuity errors : sum local = 6.27194882e-05, global = -1.17105706e-05, cumulative = 1.32279146e-05
rho max/min : 1.20355848 1.14460896
smoothSolver:  Solving for epsilon, Initial residual = 0.0574348644, Final residual = 0.00228512146, No Iterations 3
smoothSolver:  Solving for k, Initial residual = 0.0599635412, Final residual = 0.00586681704, No Iterations 3
GAMG:  Solving for f, Initial residual = 0.0526348986, Final residual = 0.000242298391, No Iterations 1
smoothSolver:  Solving for v2, Initial residual = 0.0352345197, Final residual = 0.00216883167, No Iterations 4
ExecutionTime = 138.19 s  ClockTime = 138 s

wallHeatFlux wallHeatFlux output:

Wall heat fluxes [W]
room_SIDE2
    convective: 0
    radiative:  -0
    total:      0
    Temperature : min = 292.823844, max = 293.933196, average = 293.573963
room_FLOOR
    convective: 0
    radiative:  -0
    total:      0
    Temperature : min = 292.823843, max = 305.484811, average = 293.540269
room_CEILING
    convective: 0
    radiative:  -0
    total:      0
    Temperature : min = 293.932361, max = 293.932534, average = 293.932415
room_BACK
    convective: 0
    radiative:  -0
    total:      0
    Temperature : min = 292.820074, max = 293.932563, average = 293.602294
room_SIDE1
    convective: 0
    radiative:  -0
    total:      0
    Temperature : min = 292.823843, max = 293.933196, average = 293.571785
manikin
    convective: 480.261455
    radiative:  -0
    total:      480.261455
    Temperature : min = 307.15, max = 307.15, average = 307.15

yPlusRAS yplusRAS output:
    patch room_SIDE2 y+ : min = 0.529744025, max = 7.15144598, average = 4.55240028
    patch room_FLOOR y+ : min = 0.143349225, max = 7.07376007, average = 3.50865964
    patch room_CEILING y+ : min = 0.344405713, max = 6.68505373, average = 4.33764534
    patch room_BACK y+ : min = 0.466183722, max = 51.492582, average = 4.94208262
    patch room_SIDE1 y+ : min = 0.344300916, max = 7.0470889, average = 4.57134725
    patch manikin y+ : min = 0.0269145474, max = 7.9909898, average = 1.36896979

yPlusRASLowRe yplusRASLowRe output:
room_SIDE2
    y+ : min = 0.529744025, max = 7.15144598, average = 4.55240028
    y : min = 0.000544684214, max = 0.00250000001, average = 0.00234603179
room_FLOOR
    y+ : min = 0.143349225, max = 7.07376007, average = 3.50865964
    y : min = 0.000139430812, max = 0.00249999971, average = 0.00161917022
room_CEILING
    y+ : min = 0.344405713, max = 6.68505373, average = 4.33764534
    y : min = 0.000647142072, max = 0.00249999973, average = 0.00231379284
room_BACK
    y+ : min = 0.466183722, max = 51.492582, average = 4.94208262
    y : min = 0.000872666798, max = 0.00549005797, average = 0.00123342378
room_SIDE1
    y+ : min = 0.344300916, max = 7.0470889, average = 4.57134725
    y : min = 0.000544684643, max = 0.0025, average = 0.00234602486
manikin
    y+ : min = 0.0269145474, max = 7.9909898, average = 1.36896979
    y : min = 4.97449872e-05, max = 0.00255854003, average = 0.000292020944

forceCoeffs forceCoeffs1 output:
    Cm    = -4492.81102
    Cd    = -97.6798962
    Cl    = -8650.81548
    Cl(f) = -8818.21876
    Cl(r) = 167.403277

Time = 6011

DILUPBiCG:  Solving for Ux, Initial residual = 0.0024320121, Final residual = 4.56867757e-05, No Iterations 1
DILUPBiCG:  Solving for Uy, Initial residual = 0.00476722229, Final residual = 0.000471509036, No Iterations 1
DILUPBiCG:  Solving for Uz, Initial residual = 0.00205873061, Final residual = 4.30246631e-05, No Iterations 1
DILUPBiCG:  Solving for h, Initial residual = 0.00225732914, Final residual = 2.41877342e-05, No Iterations 1
GAMG:  Solving for p_rgh, Initial residual = 0.0281591902, Final residual = 0.000188538227, No Iterations 2
time step continuity errors : sum local = 4.8350044e-05, global = -8.14989616e-06, cumulative = 5.07801846e-06
rho max/min : 1.20356193 1.14463868
smoothSolver:  Solving for epsilon, Initial residual = 0.0432659733, Final residual = 0.00314721128, No Iterations 2
smoothSolver:  Solving for k, Initial residual = 0.0638657604, Final residual = 0.00564330805, No Iterations 3
GAMG:  Solving for f, Initial residual = 0.0526062308, Final residual = 0.000241433647, No Iterations 1
smoothSolver:  Solving for v2, Initial residual = 0.0336176321, Final residual = 0.00214536223, No Iterations 4
ExecutionTime = 152.08 s  ClockTime = 152 s

wallHeatFlux wallHeatFlux output:

Wall heat fluxes [W]
room_SIDE2
    convective: 0
    radiative:  -0
    total:      0
    Temperature : min = 292.823844, max = 293.93319, average = 293.573854
room_FLOOR
    convective: 0
    radiative:  -0
    total:      0
    Temperature : min = 292.823843, max = 305.415779, average = 293.546227
room_CEILING
    convective: 0
    radiative:  -0
    total:      0
    Temperature : min = 293.932361, max = 293.932534, average = 293.932416
room_BACK
    convective: 0
    radiative:  -0
    total:      0
    Temperature : min = 292.82021, max = 293.932563, average = 293.602222
room_SIDE1
    convective: 0
    radiative:  -0
    total:      0
    Temperature : min = 292.823843, max = 293.93319, average = 293.571714
manikin
    convective: 496.811544
    radiative:  -0
    total:      496.811544
    Temperature : min = 307.15, max = 307.15, average = 307.15

yPlusRAS yplusRAS output:
    patch room_SIDE2 y+ : min = 0.525550509, max = 7.15075718, average = 4.59205942
    patch room_FLOOR y+ : min = 0.128491581, max = 7.05157882, average = 3.54170827
    patch room_CEILING y+ : min = 0.378957208, max = 6.68439725, average = 4.37766619
    patch room_BACK y+ : min = 0.435992468, max = 51.5506706, average = 4.95850288
    patch room_SIDE1 y+ : min = 0.353239895, max = 7.04723219, average = 4.61054252
    patch manikin y+ : min = 0.0362409321, max = 7.96349101, average = 1.38494495

yPlusRASLowRe yplusRASLowRe output:
room_SIDE2
    y+ : min = 0.525550509, max = 7.15075718, average = 4.59205942
    y : min = 0.000544684214, max = 0.00250000001, average = 0.00234603179
room_FLOOR
    y+ : min = 0.128491581, max = 7.05157882, average = 3.54170827
    y : min = 0.000139430812, max = 0.00249999971, average = 0.00161917022
room_CEILING
    y+ : min = 0.378957208, max = 6.68439725, average = 4.37766619
    y : min = 0.000647142072, max = 0.00249999973, average = 0.00231379284
room_BACK
    y+ : min = 0.435992468, max = 51.5506706, average = 4.95850288
    y : min = 0.000872666798, max = 0.00549005797, average = 0.00123342378
room_SIDE1
    y+ : min = 0.353239895, max = 7.04723219, average = 4.61054252
    y : min = 0.000544684643, max = 0.0025, average = 0.00234602486
manikin
    y+ : min = 0.0362409321, max = 7.96349101, average = 1.38494495
    y : min = 4.97449872e-05, max = 0.00255854003, average = 0.000292020944

forceCoeffs forceCoeffs1 output:
    Cm    = -4492.82734
    Cd    = -97.6311372
    Cl    = -8650.83425
    Cl(f) = -8818.24446
    Cl(r) = 167.410213

Time = 6012

DILUPBiCG:  Solving for Ux, Initial residual = 0.00229838277, Final residual = 3.73878094e-05, No Iterations 1
DILUPBiCG:  Solving for Uy, Initial residual = 0.00441679789, Final residual = 0.000373745801, No Iterations 1
DILUPBiCG:  Solving for Uz, Initial residual = 0.00190300147, Final residual = 3.20720212e-05, No Iterations 1
DILUPBiCG:  Solving for h, Initial residual = 0.00216593606, Final residual = 2.36239043e-05, No Iterations 1
GAMG:  Solving for p_rgh, Initial residual = 0.0247896708, Final residual = 0.000175963531, No Iterations 2
time step continuity errors : sum local = 4.4913383e-05, global = -2.93646437e-06, cumulative = 2.14155409e-06
rho max/min : 1.20356442 1.14475921
smoothSolver:  Solving for epsilon, Initial residual = 0.034579815, Final residual = 0.00177513417, No Iterations 2
smoothSolver:  Solving for k, Initial residual = 0.0645599038, Final residual = 0.00537182935, No Iterations 3
GAMG:  Solving for f, Initial residual = 0.0527576476, Final residual = 0.000241528745, No Iterations 1
smoothSolver:  Solving for v2, Initial residual = 0.0321158135, Final residual = 0.00206226792, No Iterations 4
ExecutionTime = 165.83 s  ClockTime = 166 s

wallHeatFlux wallHeatFlux output:

Wall heat fluxes [W]
room_SIDE2
    convective: 0
    radiative:  -0
    total:      0
    Temperature : min = 292.823844, max = 293.933185, average = 293.573752
room_FLOOR
    convective: 0
    radiative:  -0
    total:      0
    Temperature : min = 292.823843, max = 305.348465, average = 293.55192
room_CEILING
    convective: 0
    radiative:  -0
    total:      0
    Temperature : min = 293.932361, max = 293.932534, average = 293.932416
room_BACK
    convective: 0
    radiative:  -0
    total:      0
    Temperature : min = 292.820309, max = 293.932563, average = 293.602156
room_SIDE1
    convective: 0
    radiative:  -0
    total:      0
    Temperature : min = 292.823843, max = 293.933185, average = 293.571648
manikin
    convective: 512.177015
    radiative:  -0
    total:      512.177015
    Temperature : min = 307.15, max = 307.15, average = 307.15

yPlusRAS yplusRAS output:
    patch room_SIDE2 y+ : min = 0.391426894, max = 7.14763027, average = 4.62698864
    patch room_FLOOR y+ : min = 0.098688737, max = 7.02872939, average = 3.57105001
    patch room_CEILING y+ : min = 0.399118227, max = 6.68370505, average = 4.41292569
    patch room_BACK y+ : min = 0.423233477, max = 51.5962491, average = 4.97251104
    patch room_SIDE1 y+ : min = 0.360731842, max = 7.04472228, average = 4.64506039
    patch manikin y+ : min = 0.0440876532, max = 7.94301939, average = 1.39912547

yPlusRASLowRe yplusRASLowRe output:
room_SIDE2
    y+ : min = 0.391426894, max = 7.14763027, average = 4.62698864
    y : min = 0.000544684214, max = 0.00250000001, average = 0.00234603179
room_FLOOR
    y+ : min = 0.098688737, max = 7.02872939, average = 3.57105001
    y : min = 0.000139430812, max = 0.00249999971, average = 0.00161917022
room_CEILING
    y+ : min = 0.399118227, max = 6.68370505, average = 4.41292569
    y : min = 0.000647142072, max = 0.00249999973, average = 0.00231379284
room_BACK
    y+ : min = 0.423233477, max = 51.5962491, average = 4.97251104
    y : min = 0.000872666798, max = 0.00549005797, average = 0.00123342378
room_SIDE1
    y+ : min = 0.360731842, max = 7.04472228, average = 4.64506039
    y : min = 0.000544684643, max = 0.0025, average = 0.00234602486
manikin
    y+ : min = 0.0440876532, max = 7.94301939, average = 1.39912547
    y : min = 4.97449872e-05, max = 0.00255854003, average = 0.000292020944

forceCoeffs forceCoeffs1 output:
    Cm    = -4492.8392
    Cd    = -97.5924655
    Cl    = -8650.84122
    Cl(f) = -8818.25981
    Cl(r) = 167.41859

Time = 6013

DILUPBiCG:  Solving for Ux, Initial residual = 0.00218656898, Final residual = 3.13879865e-05, No Iterations 1
DILUPBiCG:  Solving for Uy, Initial residual = 0.00412347985, Final residual = 0.000294045435, No Iterations 1
DILUPBiCG:  Solving for Uz, Initial residual = 0.00177553397, Final residual = 2.52642137e-05, No Iterations 1
DILUPBiCG:  Solving for h, Initial residual = 0.00208104824, Final residual = 2.30793552e-05, No Iterations 1
GAMG:  Solving for p_rgh, Initial residual = 0.0225109903, Final residual = 0.000106162433, No Iterations 3
time step continuity errors : sum local = 2.68686366e-05, global = -7.26226681e-07, cumulative = 1.41532741e-06
rho max/min : 1.20356541 1.14433048
smoothSolver:  Solving for epsilon, Initial residual = 0.0327734913, Final residual = 0.0025196834, No Iterations 2
smoothSolver:  Solving for k, Initial residual = 0.0619879656, Final residual = 0.0051415606, No Iterations 3
GAMG:  Solving for f, Initial residual = 0.0547701527, Final residual = 0.00025115496, No Iterations 1
smoothSolver:  Solving for v2, Initial residual = 0.0308417932, Final residual = 0.00202420734, No Iterations 4
ExecutionTime = 180.33 s  ClockTime = 180 s

wallHeatFlux wallHeatFlux output:

Wall heat fluxes [W]
room_SIDE2
    convective: 0
    radiative:  -0
    total:      0
    Temperature : min = 292.823843, max = 293.93318, average = 293.573656
room_FLOOR
    convective: 0
    radiative:  -0
    total:      0
    Temperature : min = 292.823843, max = 305.297283, average = 293.557377
room_CEILING
    convective: 0
    radiative:  -0
    total:      0
    Temperature : min = 293.932361, max = 293.932534, average = 293.932416
room_BACK
    convective: 0
    radiative:  -0
    total:      0
    Temperature : min = 292.820375, max = 293.932563, average = 293.602094
room_SIDE1
    convective: 0
    radiative:  -0
    total:      0
    Temperature : min = 292.823843, max = 293.93318, average = 293.571584
manikin
    convective: 526.517175
    radiative:  -0
    total:      526.517175
    Temperature : min = 307.15, max = 307.15, average = 307.15

yPlusRAS yplusRAS output:
    patch room_SIDE2 y+ : min = 0.266310484, max = 7.14254037, average = 4.65802692
    patch room_FLOOR y+ : min = 0.0771926198, max = 7.00542794, average = 3.59731164
    patch room_CEILING y+ : min = 0.408521866, max = 6.68301022, average = 4.44423432
    patch room_BACK y+ : min = 0.430698636, max = 51.6266676, average = 4.98448139
    patch room_SIDE1 y+ : min = 0.3687475, max = 7.04008558, average = 4.6757159
    patch manikin y+ : min = 0.0508860538, max = 7.92539711, average = 1.41190476

yPlusRASLowRe yplusRASLowRe output:
room_SIDE2
    y+ : min = 0.266310484, max = 7.14254037, average = 4.65802692
    y : min = 0.000544684214, max = 0.00250000001, average = 0.00234603179
room_FLOOR
    y+ : min = 0.0771926198, max = 7.00542794, average = 3.59731164
    y : min = 0.000139430812, max = 0.00249999971, average = 0.00161917022
room_CEILING
    y+ : min = 0.408521866, max = 6.68301022, average = 4.44423432
    y : min = 0.000647142072, max = 0.00249999973, average = 0.00231379284
room_BACK
    y+ : min = 0.430698636, max = 51.6266676, average = 4.98448139
    y : min = 0.000872666798, max = 0.00549005797, average = 0.00123342378
room_SIDE1
    y+ : min = 0.3687475, max = 7.04008558, average = 4.6757159
    y : min = 0.000544684643, max = 0.0025, average = 0.00234602486
manikin
    y+ : min = 0.0508860538, max = 7.92539711, average = 1.41190476
    y : min = 4.97449872e-05, max = 0.00255854003, average = 0.000292020944

forceCoeffs forceCoeffs1 output:
    Cm    = -4492.84906
    Cd    = -97.5276483
    Cl    = -8650.85209
    Cl(f) = -8818.2751
    Cl(r) = 167.423011

Time = 6014

DILUPBiCG:  Solving for Ux, Initial residual = 0.00208946636, Final residual = 2.71413037e-05, No Iterations 1
DILUPBiCG:  Solving for Uy, Initial residual = 0.00388029235, Final residual = 0.000204263608, No Iterations 1
DILUPBiCG:  Solving for Uz, Initial residual = 0.00166844575, Final residual = 2.09681022e-05, No Iterations 1
DILUPBiCG:  Solving for h, Initial residual = 0.00200194508, Final residual = 2.2549727e-05, No Iterations 1
GAMG:  Solving for p_rgh, Initial residual = 0.0204223499, Final residual = 0.000172367187, No Iterations 2
time step continuity errors : sum local = 4.32719104e-05, global = -3.3176669e-06, cumulative = -1.90233949e-06
rho max/min : 1.20356628 1.14380038
smoothSolver:  Solving for epsilon, Initial residual = 0.0392789979, Final residual = 0.00318256125, No Iterations 2
smoothSolver:  Solving for k, Initial residual = 0.0570648194, Final residual = 0.00494151103, No Iterations 3
GAMG:  Solving for f, Initial residual = 0.0575376856, Final residual = 0.000253345041, No Iterations 1
smoothSolver:  Solving for v2, Initial residual = 0.0292425415, Final residual = 0.00195053955, No Iterations 4
ExecutionTime = 193.62 s  ClockTime = 194 s

wallHeatFlux wallHeatFlux output:

Wall heat fluxes [W]
room_SIDE2
    convective: 0
    radiative:  -0
    total:      0
    Temperature : min = 292.823843, max = 293.933175, average = 293.573565
room_FLOOR
    convective: 0
    radiative:  -0
    total:      0
    Temperature : min = 292.823843, max = 305.247858, average = 293.562625
room_CEILING
    convective: 0
    radiative:  -0
    total:      0
    Temperature : min = 293.932361, max = 293.932534, average = 293.932416
room_BACK
    convective: 0
    radiative:  -0
    total:      0
    Temperature : min = 292.820417, max = 293.932563, average = 293.602035
room_SIDE1
    convective: 0
    radiative:  -0
    total:      0
    Temperature : min = 292.823843, max = 293.933175, average = 293.571523
manikin
    convective: 539.958845
    radiative:  -0
    total:      539.958845
    Temperature : min = 307.15, max = 307.15, average = 307.15

yPlusRAS yplusRAS output:
    patch room_SIDE2 y+ : min = 0.352692484, max = 7.1359355, average = 4.68583103
    patch room_FLOOR y+ : min = 0.0899093682, max = 6.98175249, average = 3.62096945
    patch room_CEILING y+ : min = 0.413994849, max = 6.68231916, average = 4.47220909
    patch room_BACK y+ : min = 0.454583283, max = 51.6423147, average = 4.99470317
    patch room_SIDE1 y+ : min = 0.377672296, max = 7.03384879, average = 4.70310989
    patch manikin y+ : min = 0.0569570316, max = 7.91223835, average = 1.42346619

yPlusRASLowRe yplusRASLowRe output:
room_SIDE2
    y+ : min = 0.352692484, max = 7.1359355, average = 4.68583103
    y : min = 0.000544684214, max = 0.00250000001, average = 0.00234603179
room_FLOOR
    y+ : min = 0.0899093682, max = 6.98175249, average = 3.62096945
    y : min = 0.000139430812, max = 0.00249999971, average = 0.00161917022
room_CEILING
    y+ : min = 0.413994849, max = 6.68231916, average = 4.47220909
    y : min = 0.000647142072, max = 0.00249999973, average = 0.00231379284
room_BACK
    y+ : min = 0.454583283, max = 51.6423147, average = 4.99470317
    y : min = 0.000872666798, max = 0.00549005797, average = 0.00123342378
room_SIDE1
    y+ : min = 0.377672296, max = 7.03384879, average = 4.70310989
    y : min = 0.000544684643, max = 0.0025, average = 0.00234602486
manikin
    y+ : min = 0.0569570316, max = 7.91223835, average = 1.42346619
    y : min = 4.97449872e-05, max = 0.00255854003, average = 0.000292020944

forceCoeffs forceCoeffs1 output:
    Cm    = -4492.85657
    Cd    = -97.4639699
    Cl    = -8650.86756
    Cl(f) = -8818.29035
    Cl(r) = 167.422793

Time = 6015

DILUPBiCG:  Solving for Ux, Initial residual = 0.00200338238, Final residual = 2.44649493e-05, No Iterations 1
DILUPBiCG:  Solving for Uy, Initial residual = 0.00366738543, Final residual = 0.000136678121, No Iterations 1
DILUPBiCG:  Solving for Uz, Initial residual = 0.0015773704, Final residual = 1.84968428e-05, No Iterations 1
DILUPBiCG:  Solving for h, Initial residual = 0.001928282, Final residual = 2.2035356e-05, No Iterations 1
GAMG:  Solving for p_rgh, Initial residual = 0.0183563534, Final residual = 0.000169053291, No Iterations 2
time step continuity errors : sum local = 4.20757813e-05, global = -5.95573844e-06, cumulative = -7.85807793e-06
rho max/min : 1.20356736 1.14330575
smoothSolver:  Solving for epsilon, Initial residual = 0.049247839, Final residual = 0.003372605, No Iterations 2
smoothSolver:  Solving for k, Initial residual = 0.051160717, Final residual = 0.00475471067, No Iterations 3
GAMG:  Solving for f, Initial residual = 0.0560602323, Final residual = 0.000247425566, No Iterations 1
smoothSolver:  Solving for v2, Initial residual = 0.028362395, Final residual = 0.00189202215, No Iterations 4
ExecutionTime = 206.96 s  ClockTime = 207 s

wallHeatFlux wallHeatFlux output:

Wall heat fluxes [W]
room_SIDE2
    convective: 0
    radiative:  -0
    total:      0
    Temperature : min = 292.823843, max = 293.93317, average = 293.573479
room_FLOOR
    convective: 0
    radiative:  -0
    total:      0
    Temperature : min = 292.823843, max = 305.199955, average = 293.567686
room_CEILING
    convective: 0
    radiative:  -0
    total:      0
    Temperature : min = 293.932361, max = 293.932534, average = 293.932417
room_BACK
    convective: 0
    radiative:  -0
    total:      0
    Temperature : min = 292.820445, max = 293.932562, average = 293.601981
room_SIDE1
    convective: 0
    radiative:  -0
    total:      0
    Temperature : min = 292.823843, max = 293.93317, average = 293.571465
manikin
    convective: 552.605002
    radiative:  -0
    total:      552.605002
    Temperature : min = 307.15, max = 307.15, average = 307.15

yPlusRAS yplusRAS output:
    patch room_SIDE2 y+ : min = 0.472215027, max = 7.1280286, average = 4.71088784
    patch room_FLOOR y+ : min = 0.11295006, max = 6.95782633, average = 3.64241752
    patch room_CEILING y+ : min = 0.418035154, max = 6.68162431, average = 4.497385
    patch room_BACK y+ : min = 0.434662563, max = 51.645864, average = 5.00340843
    patch room_SIDE1 y+ : min = 0.386047666, max = 7.02632736, average = 4.72775161
    patch manikin y+ : min = 0.0594701764, max = 7.90254854, average = 1.43397607

yPlusRASLowRe yplusRASLowRe output:
room_SIDE2
    y+ : min = 0.472215027, max = 7.1280286, average = 4.71088784
    y : min = 0.000544684214, max = 0.00250000001, average = 0.00234603179
room_FLOOR
    y+ : min = 0.11295006, max = 6.95782633, average = 3.64241752
    y : min = 0.000139430812, max = 0.00249999971, average = 0.00161917022
room_CEILING
    y+ : min = 0.418035154, max = 6.68162431, average = 4.497385
    y : min = 0.000647142072, max = 0.00249999973, average = 0.00231379284
room_BACK
    y+ : min = 0.434662563, max = 51.645864, average = 5.00340843
    y : min = 0.000872666798, max = 0.00549005797, average = 0.00123342378
room_SIDE1
    y+ : min = 0.386047666, max = 7.02632736, average = 4.72775161
    y : min = 0.000544684643, max = 0.0025, average = 0.00234602486
manikin
    y+ : min = 0.0594701764, max = 7.90254854, average = 1.43397607
    y : min = 4.97449872e-05, max = 0.00255854003, average = 0.000292020944

forceCoeffs forceCoeffs1 output:
    Cm    = -4492.86468
    Cd    = -97.3928464
    Cl    = -8650.89053
    Cl(f) = -8818.30995
    Cl(r) = 167.419418

Time = 6016

DILUPBiCG:  Solving for Ux, Initial residual = 0.00192731327, Final residual = 2.28974303e-05, No Iterations 1
DILUPBiCG:  Solving for Uy, Initial residual = 0.00347480824, Final residual = 9.20609984e-05, No Iterations 1
DILUPBiCG:  Solving for Uz, Initial residual = 0.00149890959, Final residual = 1.71967144e-05, No Iterations 1
DILUPBiCG:  Solving for h, Initial residual = 0.00185963722, Final residual = 2.15325384e-05, No Iterations 1
GAMG:  Solving for p_rgh, Initial residual = 0.0165866841, Final residual = 0.000149498402, No Iterations 2
time step continuity errors : sum local = 3.68691977e-05, global = -6.79413788e-06, cumulative = -1.46522158e-05
rho max/min : 1.20356936 1.14286514
smoothSolver:  Solving for epsilon, Initial residual = 0.0570129778, Final residual = 0.00331201229, No Iterations 2
smoothSolver:  Solving for k, Initial residual = 0.0451985877, Final residual = 0.00225580284, No Iterations 4
GAMG:  Solving for f, Initial residual = 0.0552662868, Final residual = 0.000239344585, No Iterations 1
smoothSolver:  Solving for v2, Initial residual = 0.0273032431, Final residual = 0.00184290193, No Iterations 4
ExecutionTime = 220.11 s  ClockTime = 220 s

wallHeatFlux wallHeatFlux output:

Wall heat fluxes [W]
room_SIDE2
    convective: 0
    radiative:  -0
    total:      0
    Temperature : min = 292.823843, max = 293.933165, average = 293.573396
room_FLOOR
    convective: 0
    radiative:  -0
    total:      0
    Temperature : min = 292.823843, max = 305.153372, average = 293.572578
room_CEILING
    convective: 0
    radiative:  -0
    total:      0
    Temperature : min = 293.932361, max = 293.932534, average = 293.932417
room_BACK
    convective: 0
    radiative:  -0
    total:      0
    Temperature : min = 292.820469, max = 293.932562, average = 293.601931
room_SIDE1
    convective: 0
    radiative:  -0
    total:      0
    Temperature : min = 292.823843, max = 293.933165, average = 293.571409
manikin
    convective: 564.540402
    radiative:  -0
    total:      564.540402
    Temperature : min = 307.15, max = 307.15, average = 307.15

yPlusRAS yplusRAS output:
    patch room_SIDE2 y+ : min = 0.565044944, max = 7.1190097, average = 4.73363063
    patch room_FLOOR y+ : min = 0.134592506, max = 6.93375605, average = 3.66197489
    patch room_CEILING y+ : min = 0.420077901, max = 6.68094153, average = 4.52020937
    patch room_BACK y+ : min = 0.401975305, max = 51.63962, average = 5.01079372
    patch room_SIDE1 y+ : min = 0.393274289, max = 7.01772018, average = 4.75008412
    patch manikin y+ : min = 0.0602558537, max = 7.89409384, average = 1.44356804

yPlusRASLowRe yplusRASLowRe output:
room_SIDE2
    y+ : min = 0.565044944, max = 7.1190097, average = 4.73363063
    y : min = 0.000544684214, max = 0.00250000001, average = 0.00234603179
room_FLOOR
    y+ : min = 0.134592506, max = 6.93375605, average = 3.66197489
    y : min = 0.000139430812, max = 0.00249999971, average = 0.00161917022
room_CEILING
    y+ : min = 0.420077901, max = 6.68094153, average = 4.52020937
    y : min = 0.000647142072, max = 0.00249999973, average = 0.00231379284
room_BACK
    y+ : min = 0.401975305, max = 51.63962, average = 5.01079372
    y : min = 0.000872666798, max = 0.00549005797, average = 0.00123342378
room_SIDE1
    y+ : min = 0.393274289, max = 7.01772018, average = 4.75008412
    y : min = 0.000544684643, max = 0.0025, average = 0.00234602486
manikin
    y+ : min = 0.0602558537, max = 7.89409384, average = 1.44356804
    y : min = 4.97449872e-05, max = 0.00255854003, average = 0.000292020944

forceCoeffs forceCoeffs1 output:
    Cm    = -4492.87652
    Cd    = -97.3275712
    Cl    = -8650.91711
    Cl(f) = -8818.33507
    Cl(r) = 167.417964

Time = 6017

DILUPBiCG:  Solving for Ux, Initial residual = 0.0018594563, Final residual = 2.22155253e-05, No Iterations 1
DILUPBiCG:  Solving for Uy, Initial residual = 0.00329758306, Final residual = 6.58065375e-05, No Iterations 1
DILUPBiCG:  Solving for Uz, Initial residual = 0.00142866029, Final residual = 1.67179545e-05, No Iterations 1
DILUPBiCG:  Solving for h, Initial residual = 0.00179555718, Final residual = 2.10424355e-05, No Iterations 1
GAMG:  Solving for p_rgh, Initial residual = 0.0151488611, Final residual = 0.000135940121, No Iterations 2
time step continuity errors : sum local = 3.31893478e-05, global = -5.81858645e-06, cumulative = -2.04708023e-05
rho max/min : 1.20357161 1.14249865
smoothSolver:  Solving for epsilon, Initial residual = 0.0570975656, Final residual = 0.00313117368, No Iterations 2
smoothSolver:  Solving for k, Initial residual = 0.039731569, Final residual = 0.00217182056, No Iterations 4
GAMG:  Solving for f, Initial residual = 0.0564318596, Final residual = 0.000245424535, No Iterations 1
smoothSolver:  Solving for v2, Initial residual = 0.0265892397, Final residual = 0.00179569052, No Iterations 4
ExecutionTime = 233.66 s  ClockTime = 234 s

wallHeatFlux wallHeatFlux output:

Wall heat fluxes [W]
room_SIDE2
    convective: 0
    radiative:  -0
    total:      0
    Temperature : min = 292.823843, max = 293.933161, average = 293.573317
room_FLOOR
    convective: 0
    radiative:  -0
    total:      0
    Temperature : min = 292.823843, max = 305.108035, average = 293.57732
room_CEILING
    convective: 0
    radiative:  -0
    total:      0
    Temperature : min = 293.932361, max = 293.932534, average = 293.932417
room_BACK
    convective: 0
    radiative:  -0
    total:      0
    Temperature : min = 292.820499, max = 293.932562, average = 293.601883
room_SIDE1
    convective: 0
    radiative:  -0
    total:      0
    Temperature : min = 292.823843, max = 293.933161, average = 293.571355
manikin
    convective: 575.836067
    radiative:  -0
    total:      575.836067
    Temperature : min = 307.15, max = 307.15, average = 307.15

yPlusRAS yplusRAS output:
    patch room_SIDE2 y+ : min = 0.55515397, max = 7.10904442, average = 4.7544198
    patch room_FLOOR y+ : min = 0.141139351, max = 6.90964765, average = 3.67990666
    patch room_CEILING y+ : min = 0.419040264, max = 6.68176125, average = 4.54103315
    patch room_BACK y+ : min = 0.37535008, max = 51.6252613, average = 5.01705246
    patch room_SIDE1 y+ : min = 0.399925523, max = 7.00817558, average = 4.7704552
    patch manikin y+ : min = 0.0605247029, max = 7.88592026, average = 1.45234882

yPlusRASLowRe yplusRASLowRe output:
room_SIDE2
    y+ : min = 0.55515397, max = 7.10904442, average = 4.7544198
    y : min = 0.000544684214, max = 0.00250000001, average = 0.00234603179
room_FLOOR
    y+ : min = 0.141139351, max = 6.90964765, average = 3.67990666
    y : min = 0.000139430812, max = 0.00249999971, average = 0.00161917022
room_CEILING
    y+ : min = 0.419040264, max = 6.68176125, average = 4.54103315
    y : min = 0.000647142072, max = 0.00249999973, average = 0.00231379284
room_BACK
    y+ : min = 0.37535008, max = 51.6252613, average = 5.01705246
    y : min = 0.000872666798, max = 0.00549005797, average = 0.00123342378
room_SIDE1
    y+ : min = 0.399925523, max = 7.00817558, average = 4.7704552
    y : min = 0.000544684643, max = 0.0025, average = 0.00234602486
manikin
    y+ : min = 0.0605247029, max = 7.88592026, average = 1.45234882
    y : min = 4.97449872e-05, max = 0.00255854003, average = 0.000292020944

forceCoeffs forceCoeffs1 output:
    Cm    = -4492.88693
    Cd    = -97.2633487
    Cl    = -8650.94369
    Cl(f) = -8818.35878
    Cl(r) = 167.415088

Time = 6018

DILUPBiCG:  Solving for Ux, Initial residual = 0.001798123, Final residual = 2.22920858e-05, No Iterations 1
DILUPBiCG:  Solving for Uy, Initial residual = 0.00312939281, Final residual = 4.9798081e-05, No Iterations 1
DILUPBiCG:  Solving for Uz, Initial residual = 0.00136722075, Final residual = 1.71237715e-05, No Iterations 1
DILUPBiCG:  Solving for h, Initial residual = 0.00173557396, Final residual = 2.05653807e-05, No Iterations 1
GAMG:  Solving for p_rgh, Initial residual = 0.0140995402, Final residual = 0.000129569515, No Iterations 2
time step continuity errors : sum local = 3.12785821e-05, global = -4.33111713e-06, cumulative = -2.48019194e-05
rho max/min : 1.20357355 1.14219844
smoothSolver:  Solving for epsilon, Initial residual = 0.0500012846, Final residual = 0.00290542323, No Iterations 2
smoothSolver:  Solving for k, Initial residual = 0.0355410264, Final residual = 0.00207560186, No Iterations 4
GAMG:  Solving for f, Initial residual = 0.0585558328, Final residual = 0.000248550602, No Iterations 1
smoothSolver:  Solving for v2, Initial residual = 0.0259041343, Final residual = 0.00174858536, No Iterations 4
ExecutionTime = 246.75 s  ClockTime = 247 s

wallHeatFlux wallHeatFlux output:

Wall heat fluxes [W]
room_SIDE2
    convective: 0
    radiative:  -0
    total:      0
    Temperature : min = 292.823843, max = 293.933156, average = 293.573242
room_FLOOR
    convective: 0
    radiative:  -0
    total:      0
    Temperature : min = 292.823843, max = 305.063896, average = 293.581925
room_CEILING
    convective: 0
    radiative:  -0
    total:      0
    Temperature : min = 293.932361, max = 293.932534, average = 293.932417
room_BACK
    convective: 0
    radiative:  -0
    total:      0
    Temperature : min = 292.820543, max = 293.932562, average = 293.601839
room_SIDE1
    convective: 0
    radiative:  -0
    total:      0
    Temperature : min = 292.823843, max = 293.933156, average = 293.571303
manikin
    convective: 586.552114
    radiative:  -0
    total:      586.552114
    Temperature : min = 307.15, max = 307.15, average = 307.15

yPlusRAS yplusRAS output:
    patch room_SIDE2 y+ : min = 0.515884469, max = 7.09825459, average = 4.77351397
    patch room_FLOOR y+ : min = 0.148442105, max = 6.88556064, average = 3.69641033
    patch room_CEILING y+ : min = 0.417936141, max = 6.68261924, average = 4.56011752
    patch room_BACK y+ : min = 0.354183071, max = 51.6040092, average = 5.02236476
    patch room_SIDE1 y+ : min = 0.382796403, max = 6.99781223, average = 4.78912172
    patch manikin y+ : min = 0.0532600252, max = 7.88112345, average = 1.46041281

yPlusRASLowRe yplusRASLowRe output:
room_SIDE2
    y+ : min = 0.515884469, max = 7.09825459, average = 4.77351397
    y : min = 0.000544684214, max = 0.00250000001, average = 0.00234603179
room_FLOOR
    y+ : min = 0.148442105, max = 6.88556064, average = 3.69641033
    y : min = 0.000139430812, max = 0.00249999971, average = 0.00161917022
room_CEILING
    y+ : min = 0.417936141, max = 6.68261924, average = 4.56011752
    y : min = 0.000647142072, max = 0.00249999973, average = 0.00231379284
room_BACK
    y+ : min = 0.354183071, max = 51.6040092, average = 5.02236476
    y : min = 0.000872666798, max = 0.00549005797, average = 0.00123342378
room_SIDE1
    y+ : min = 0.382796403, max = 6.99781223, average = 4.78912172
    y : min = 0.000544684643, max = 0.0025, average = 0.00234602486
manikin
    y+ : min = 0.0532600252, max = 7.88112345, average = 1.46041281
    y : min = 4.97449872e-05, max = 0.00255854003, average = 0.000292020944

forceCoeffs forceCoeffs1 output:
    Cm    = -4492.89637
    Cd    = -97.1943233
    Cl    = -8650.96579
    Cl(f) = -8818.37927
    Cl(r) = 167.413472

Time = 6019

DILUPBiCG:  Solving for Ux, Initial residual = 0.00174360662, Final residual = 2.35437617e-05, No Iterations 1
DILUPBiCG:  Solving for Uy, Initial residual = 0.00297444015, Final residual = 3.98285351e-05, No Iterations 1
DILUPBiCG:  Solving for Uz, Initial residual = 0.00131383346, Final residual = 1.88107731e-05, No Iterations 1
DILUPBiCG:  Solving for h, Initial residual = 0.00167929409, Final residual = 2.01026804e-05, No Iterations 1
GAMG:  Solving for p_rgh, Initial residual = 0.0131616176, Final residual = 0.000127587815, No Iterations 2
time step continuity errors : sum local = 3.04300235e-05, global = -3.17423718e-06, cumulative = -2.79761566e-05
rho max/min : 1.203575 1.141965
smoothSolver:  Solving for epsilon, Initial residual = 0.038394629, Final residual = 0.00272104767, No Iterations 2
smoothSolver:  Solving for k, Initial residual = 0.0324549956, Final residual = 0.00197521779, No Iterations 4
GAMG:  Solving for f, Initial residual = 0.0584562641, Final residual = 0.000241766973, No Iterations 1
smoothSolver:  Solving for v2, Initial residual = 0.025224108, Final residual = 0.00170364552, No Iterations 4
ExecutionTime = 259.88 s  ClockTime = 260 s

wallHeatFlux wallHeatFlux output:

Wall heat fluxes [W]
room_SIDE2
    convective: 0
    radiative:  -0
    total:      0
    Temperature : min = 292.823843, max = 293.933152, average = 293.573169
room_FLOOR
    convective: 0
    radiative:  -0
    total:      0
    Temperature : min = 292.823843, max = 305.020845, average = 293.586408
room_CEILING
    convective: 0
    radiative:  -0
    total:      0
    Temperature : min = 293.932361, max = 293.932534, average = 293.932417
room_BACK
    convective: 0
    radiative:  -0
    total:      0
    Temperature : min = 292.82055, max = 293.932562, average = 293.601798
room_SIDE1
    convective: 0
    radiative:  -0
    total:      0
    Temperature : min = 292.823843, max = 293.933152, average = 293.571252
manikin
    convective: 596.740179
    radiative:  -0
    total:      596.740179
    Temperature : min = 307.15, max = 307.15, average = 307.15

yPlusRAS yplusRAS output:
    patch room_SIDE2 y+ : min = 0.487914872, max = 7.08673781, average = 4.79113245
    patch room_FLOOR y+ : min = 0.152097575, max = 6.86148307, average = 3.71165873
    patch room_CEILING y+ : min = 0.424341549, max = 6.68342739, average = 4.57769068
    patch room_BACK y+ : min = 0.339233097, max = 51.577369, average = 5.02689305
    patch room_SIDE1 y+ : min = 0.3269783, max = 6.98674061, average = 4.80631103
    patch manikin y+ : min = 0.0462656191, max = 7.87722022, average = 1.46783441

yPlusRASLowRe yplusRASLowRe output:
room_SIDE2
    y+ : min = 0.487914872, max = 7.08673781, average = 4.79113245
    y : min = 0.000544684214, max = 0.00250000001, average = 0.00234603179
room_FLOOR
    y+ : min = 0.152097575, max = 6.86148307, average = 3.71165873
    y : min = 0.000139430812, max = 0.00249999971, average = 0.00161917022
room_CEILING
    y+ : min = 0.424341549, max = 6.68342739, average = 4.57769068
    y : min = 0.000647142072, max = 0.00249999973, average = 0.00231379284
room_BACK
    y+ : min = 0.339233097, max = 51.577369, average = 5.02689305
    y : min = 0.000872666798, max = 0.00549005797, average = 0.00123342378
room_SIDE1
    y+ : min = 0.3269783, max = 6.98674061, average = 4.80631103
    y : min = 0.000544684643, max = 0.0025, average = 0.00234602486
manikin
    y+ : min = 0.0462656191, max = 7.87722022, average = 1.46783441
    y : min = 4.97449872e-05, max = 0.00255854003, average = 0.000292020944

forceCoeffs forceCoeffs1 output:
    Cm    = -4492.90458
    Cd    = -97.1252275
    Cl    = -8650.9858
    Cl(f) = -8818.39748
    Cl(r) = 167.411685

Time = 6020

DILUPBiCG:  Solving for Ux, Initial residual = 0.00169379069, Final residual = 2.6144215e-05, No Iterations 1
DILUPBiCG:  Solving for Uy, Initial residual = 0.00283306571, Final residual = 3.36833377e-05, No Iterations 1
DILUPBiCG:  Solving for Uz, Initial residual = 0.00126657783, Final residual = 2.18439782e-05, No Iterations 1
DILUPBiCG:  Solving for h, Initial residual = 0.00162640755, Final residual = 1.96557954e-05, No Iterations 1
GAMG:  Solving for p_rgh, Initial residual = 0.0123623051, Final residual = 5.83231722e-05, No Iterations 3
time step continuity errors : sum local = 1.3731504e-05, global = -1.07381101e-06, cumulative = -2.90499676e-05
rho max/min : 1.20357603 1.14180292
smoothSolver:  Solving for epsilon, Initial residual = 0.0276277069, Final residual = 0.00116268618, No Iterations 3
smoothSolver:  Solving for k, Initial residual = 0.0303022914, Final residual = 0.00187487341, No Iterations 4
GAMG:  Solving for f, Initial residual = 0.0562689982, Final residual = 0.000228877109, No Iterations 1
smoothSolver:  Solving for v2, Initial residual = 0.0252981699, Final residual = 0.00169890381, No Iterations 4
ExecutionTime = 273.48 s  ClockTime = 273 s

wallHeatFlux wallHeatFlux output:

Wall heat fluxes [W]
room_SIDE2
    convective: 0
    radiative:  -0
    total:      0
    Temperature : min = 292.823843, max = 293.933148, average = 293.573099
room_FLOOR
    convective: 0
    radiative:  -0
    total:      0
    Temperature : min = 292.823843, max = 304.978757, average = 293.590778
room_CEILING
    convective: 0
    radiative:  -0
    total:      0
    Temperature : min = 293.932361, max = 293.932534, average = 293.932418
room_BACK
    convective: 0
    radiative:  -0
    total:      0
    Temperature : min = 292.820359, max = 293.932562, average = 293.60176
room_SIDE1
    convective: 0
    radiative:  -0
    total:      0
    Temperature : min = 292.823843, max = 293.933148, average = 293.571203
manikin
    convective: 606.444931
    radiative:  -0
    total:      606.444931
    Temperature : min = 307.15, max = 307.15, average = 307.15

yPlusRAS yplusRAS output:
    patch room_SIDE2 y+ : min = 0.475795259, max = 7.07458199, average = 4.80745659
    patch room_FLOOR y+ : min = 0.137381106, max = 6.83737492, average = 3.72579427
    patch room_CEILING y+ : min = 0.438454935, max = 6.68414433, average = 4.59395385
    patch room_BACK y+ : min = 0.328407594, max = 51.5472993, average = 5.0307887
    patch room_SIDE1 y+ : min = 0.297852633, max = 6.97505644, average = 4.82219298
    patch manikin y+ : min = 0.0432632557, max = 7.87348027, average = 1.47467816

yPlusRASLowRe yplusRASLowRe output:
room_SIDE2
    y+ : min = 0.475795259, max = 7.07458199, average = 4.80745659
    y : min = 0.000544684214, max = 0.00250000001, average = 0.00234603179
room_FLOOR
    y+ : min = 0.137381106, max = 6.83737492, average = 3.72579427
    y : min = 0.000139430812, max = 0.00249999971, average = 0.00161917022
room_CEILING
    y+ : min = 0.438454935, max = 6.68414433, average = 4.59395385
    y : min = 0.000647142072, max = 0.00249999973, average = 0.00231379284
room_BACK
    y+ : min = 0.328407594, max = 51.5472993, average = 5.0307887
    y : min = 0.000872666798, max = 0.00549005797, average = 0.00123342378
room_SIDE1
    y+ : min = 0.297852633, max = 6.97505644, average = 4.82219298
    y : min = 0.000544684643, max = 0.0025, average = 0.00234602486
manikin
    y+ : min = 0.0432632557, max = 7.87348027, average = 1.47467816
    y : min = 4.97449872e-05, max = 0.00255854003, average = 0.000292020944

forceCoeffs forceCoeffs1 output:
    Cm    = -4492.91026
    Cd    = -97.0469778
    Cl    = -8651.0065
    Cl(f) = -8818.41351
    Cl(r) = 167.407011

Time = 6021

DILUPBiCG:  Solving for Ux, Initial residual = 0.00164555784, Final residual = 3.05456192e-05, No Iterations 1
DILUPBiCG:  Solving for Uy, Initial residual = 0.00270247587, Final residual = 3.00404028e-05, No Iterations 1
DILUPBiCG:  Solving for Uz, Initial residual = 0.00122404117, Final residual = 2.68875682e-05, No Iterations 1
DILUPBiCG:  Solving for h, Initial residual = 0.00157662475, Final residual = 1.92259382e-05, No Iterations 1
GAMG:  Solving for p_rgh, Initial residual = 0.011758982, Final residual = 5.53674072e-05, No Iterations 3
time step continuity errors : sum local = 1.28643851e-05, global = -5.26214042e-07, cumulative = -2.95761816e-05
rho max/min : 1.20357701 1.14169243
smoothSolver:  Solving for epsilon, Initial residual = 0.0244407124, Final residual = 0.00130888704, No Iterations 3
smoothSolver:  Solving for k, Initial residual = 0.0288283538, Final residual = 0.00177907865, No Iterations 4
GAMG:  Solving for f, Initial residual = 0.0548379546, Final residual = 0.000220566461, No Iterations 1
smoothSolver:  Solving for v2, Initial residual = 0.024244181, Final residual = 0.00164957602, No Iterations 4
ExecutionTime = 286.95 s  ClockTime = 287 s

wallHeatFlux wallHeatFlux output:

Wall heat fluxes [W]
room_SIDE2
    convective: 0
    radiative:  -0
    total:      0
    Temperature : min = 292.823843, max = 293.933144, average = 293.573032
room_FLOOR
    convective: 0
    radiative:  -0
    total:      0
    Temperature : min = 292.823843, max = 304.937532, average = 293.595047
room_CEILING
    convective: 0
    radiative:  -0
    total:      0
    Temperature : min = 293.932361, max = 293.932534, average = 293.932418
room_BACK
    convective: 0
    radiative:  -0
    total:      0
    Temperature : min = 292.820244, max = 293.932562, average = 293.601725
room_SIDE1
    convective: 0
    radiative:  -0
    total:      0
    Temperature : min = 292.823843, max = 293.933144, average = 293.571156
manikin
    convective: 615.7054
    radiative:  -0
    total:      615.7054
    Temperature : min = 307.15, max = 307.15, average = 307.15

yPlusRAS yplusRAS output:
    patch room_SIDE2 y+ : min = 0.480300103, max = 7.06239128, average = 4.822623
    patch room_FLOOR y+ : min = 0.145255453, max = 6.81327849, average = 3.73894278
    patch room_CEILING y+ : min = 0.456300661, max = 6.68479662, average = 4.60905246
    patch room_BACK y+ : min = 0.318419487, max = 51.51511, average = 5.03416495
    patch room_SIDE1 y+ : min = 0.316977377, max = 6.96282073, average = 4.83691969
    patch manikin y+ : min = 0.0463787652, max = 7.86863643, average = 1.48100142

yPlusRASLowRe yplusRASLowRe output:
room_SIDE2
    y+ : min = 0.480300103, max = 7.06239128, average = 4.822623
    y : min = 0.000544684214, max = 0.00250000001, average = 0.00234603179
room_FLOOR
[...]
manikin
    y+ : min = 0.0575690901, max = 106.854391, average = 1.67607431
    y : min = 4.97449872e-05, max = 0.00255854003, average = 0.000292020944

forceCoeffs forceCoeffs1 output:
    Cm    = -4492.38223
    Cd    = -95.824967
    Cl    = -8650.14921
    Cl(f) = -8817.45683
    Cl(r) = 167.307622

Time = 6247

DILUPBiCG:  Solving for Ux, Initial residual = 0.00038917098, Final residual = 1.35391796e-06, No Iterations 2
DILUPBiCG:  Solving for Uy, Initial residual = 0.00034389898, Final residual = 2.44383772e-05, No Iterations 1
DILUPBiCG:  Solving for Uz, Initial residual = 0.000302755998, Final residual = 2.71435808e-05, No Iterations 1
DILUPBiCG:  Solving for h, Initial residual = 0.000187750971, Final residual = 3.51069534e-06, No Iterations 1
GAMG:  Solving for p_rgh, Initial residual = 0.00212910771, Final residual = 1.81008121e-05, No Iterations 3
time step continuity errors : sum local = 2.72606457e-06, global = 1.98575405e-07, cumulative = 5.19830435e-05
rho max/min : 1.60386945 1.08170416
smoothSolver:  Solving for epsilon, Initial residual = 0.001742176, Final residual = 0.000164189052, No Iterations 3
smoothSolver:  Solving for k, Initial residual = 0.00245629118, Final residual = 0.000235204698, No Iterations 3
GAMG:  Solving for f, Initial residual = 0.0223597104, Final residual = 8.51898513e-05, No Iterations 1
smoothSolver:  Solving for v2, Initial residual = 0.00280180415, Final residual = 0.000176891078, No Iterations 4
ExecutionTime = 3420.95 s  ClockTime = 3423 s

wallHeatFlux wallHeatFlux output:

Wall heat fluxes [W]
room_SIDE2
    convective: 0
    radiative:  -0
    total:      0
    Temperature : min = 292.823849, max = 293.933076, average = 293.567184
room_FLOOR
    convective: 0
    radiative:  -0
    total:      0
    Temperature : min = 292.823848, max = 301.417226, average = 294.105504
room_CEILING
    convective: 0
    radiative:  -0
    total:      0
    Temperature : min = 293.932245, max = 293.932526, average = 293.93238
room_BACK
    convective: 0
    radiative:  -0
    total:      0
    Temperature : min = 292.829197, max = 293.932548, average = 293.614363
room_SIDE1
    convective: 0
    radiative:  -0
    total:      0
    Temperature : min = 292.823849, max = 293.933076, average = 293.566144
manikin
    convective: 980.772633
    radiative:  -0
    total:      980.772633
    Temperature : min = 307.15, max = 307.15, average = 307.15

yPlusRAS yplusRAS output:
    patch room_SIDE2 y+ : min = 0.334039464, max = 7.00672481, average = 5.14491052
    patch room_FLOOR y+ : min = 0.573190029, max = 7.18420196, average = 4.05085319
    patch room_CEILING y+ : min = 0.293776876, max = 6.61049827, average = 4.95453531
    patch room_BACK y+ : min = 0.334374108, max = 50.3034204, average = 4.97378424
    patch room_SIDE1 y+ : min = 0.454271719, max = 6.97175573, average = 5.13963903
    patch manikin y+ : min = 0.0573315129, max = 106.393867, average = 1.67579725

yPlusRASLowRe yplusRASLowRe output:
room_SIDE2
    y+ : min = 0.334039464, max = 7.00672481, average = 5.14491052
    y : min = 0.000544684214, max = 0.00250000001, average = 0.00234603179
room_FLOOR
    y+ : min = 0.573190029, max = 7.18420196, average = 4.05085319
    y : min = 0.000139430812, max = 0.00249999971, average = 0.00161917022
room_CEILING
    y+ : min = 0.293776876, max = 6.61049827, average = 4.95453531
    y : min = 0.000647142072, max = 0.00249999973, average = 0.00231379284
room_BACK
    y+ : min = 0.334374108, max = 50.3034204, average = 4.97378424
    y : min = 0.000872666798, max = 0.00549005797, average = 0.00123342378
room_SIDE1
    y+ : min = 0.454271719, max = 6.97175573, average = 5.13963903
    y : min = 0.000544684643, max = 0.0025, average = 0.00234602486
manikin
    y+ : min = 0.0573315129, max = 106.393867, average = 1.67579725
    y : min = 4.97449872e-05, max = 0.00255854003, average = 0.000292020944

forceCoeffs forceCoeffs1 output:
    Cm    = -4492.38783
    Cd    = -95.8546328
    Cl    = -8650.15625
    Cl(f) = -8817.46596
    Cl(r) = 167.309701

Time = 6248

DILUPBiCG:  Solving for Ux, Initial residual = 0.000389781636, Final residual = 2.85050901e-05, No Iterations 1
DILUPBiCG:  Solving for Uy, Initial residual = 0.000342684694, Final residual = 3.00963057e-05, No Iterations 1
DILUPBiCG:  Solving for Uz, Initial residual = 0.000301896052, Final residual = 1.28632869e-06, No Iterations 2
DILUPBiCG:  Solving for h, Initial residual = 0.000187001816, Final residual = 3.49755092e-06, No Iterations 1
GAMG:  Solving for p_rgh, Initial residual = 0.00210503575, Final residual = 1.77899927e-05, No Iterations 3
time step continuity errors : sum local = 2.68046633e-06, global = 2.23542293e-07, cumulative = 5.22065858e-05
rho max/min : 1.59217774 1.08112239
smoothSolver:  Solving for epsilon, Initial residual = 0.00177405433, Final residual = 7.81926521e-05, No Iterations 4
smoothSolver:  Solving for k, Initial residual = 0.00270889975, Final residual = 0.000250218576, No Iterations 3
GAMG:  Solving for f, Initial residual = 0.0225688589, Final residual = 9.09190036e-05, No Iterations 1
smoothSolver:  Solving for v2, Initial residual = 0.00271733652, Final residual = 0.000174682441, No Iterations 4
ExecutionTime = 3435.19 s  ClockTime = 3438 s

wallHeatFlux wallHeatFlux output:

Wall heat fluxes [W]
room_SIDE2
    convective: 0
    radiative:  -0
    total:      0
    Temperature : min = 292.823849, max = 293.933076, average = 293.567165
room_FLOOR
    convective: 0
    radiative:  -0
    total:      0
    Temperature : min = 292.823848, max = 301.412027, average = 294.10697
room_CEILING
    convective: 0
    radiative:  -0
    total:      0
    Temperature : min = 293.932244, max = 293.932526, average = 293.932379
room_BACK
    convective: 0
    radiative:  -0
    total:      0
    Temperature : min = 292.829199, max = 293.932548, average = 293.614492
room_SIDE1
    convective: 0
    radiative:  -0
    total:      0
    Temperature : min = 292.823849, max = 293.933076, average = 293.566126
manikin
    convective: 981.04051
    radiative:  -0
    total:      981.04051
    Temperature : min = 307.15, max = 307.15, average = 307.15

yPlusRAS yplusRAS output:
    patch room_SIDE2 y+ : min = 0.334797803, max = 7.00740524, average = 5.14360083
    patch room_FLOOR y+ : min = 0.575698583, max = 7.19572791, average = 4.05057968
    patch room_CEILING y+ : min = 0.289408165, max = 6.6104966, average = 4.95340697
    patch room_BACK y+ : min = 0.333928351, max = 50.3038951, average = 4.97297443
    patch room_SIDE1 y+ : min = 0.448374669, max = 6.97251371, average = 5.13846049
    patch manikin y+ : min = 0.0571132393, max = 105.895662, average = 1.67551272

yPlusRASLowRe yplusRASLowRe output:
room_SIDE2
    y+ : min = 0.334797803, max = 7.00740524, average = 5.14360083
    y : min = 0.000544684214, max = 0.00250000001, average = 0.00234603179
room_FLOOR
    y+ : min = 0.575698583, max = 7.19572791, average = 4.05057968
    y : min = 0.000139430812, max = 0.00249999971, average = 0.00161917022
room_CEILING
    y+ : min = 0.289408165, max = 6.6104966, average = 4.95340697
    y : min = 0.000647142072, max = 0.00249999973, average = 0.00231379284
room_BACK
    y+ : min = 0.333928351, max = 50.3038951, average = 4.97297443
    y : min = 0.000872666798, max = 0.00549005797, average = 0.00123342378
room_SIDE1
    y+ : min = 0.448374669, max = 6.97251371, average = 5.13846049
    y : min = 0.000544684643, max = 0.0025, average = 0.00234602486
manikin
    y+ : min = 0.0571132393, max = 105.895662, average = 1.67551272
    y : min = 4.97449872e-05, max = 0.00255854003, average = 0.000292020944

forceCoeffs forceCoeffs1 output:
    Cm    = -4492.3956
    Cd    = -95.8903811
    Cl    = -8650.16435
    Cl(f) = -8817.47778
    Cl(r) = 167.313425

Time = 6249

DILUPBiCG:  Solving for Ux, Initial residual = 0.000391452155, Final residual = 2.17241961e-05, No Iterations 1
DILUPBiCG:  Solving for Uy, Initial residual = 0.000342714557, Final residual = 8.88851177e-06, No Iterations 2
DILUPBiCG:  Solving for Uz, Initial residual = 0.000300151058, Final residual = 6.73848281e-07, No Iterations 2
DILUPBiCG:  Solving for h, Initial residual = 0.000186262188, Final residual = 3.48418736e-06, No Iterations 1
GAMG:  Solving for p_rgh, Initial residual = 0.00212564975, Final residual = 1.23311265e-05, No Iterations 4
time step continuity errors : sum local = 1.85871687e-06, global = 1.505208e-07, cumulative = 5.23571066e-05
rho max/min : 1.58017135 1.08053963
smoothSolver:  Solving for epsilon, Initial residual = 0.00182867995, Final residual = 8.44811017e-05, No Iterations 4
smoothSolver:  Solving for k, Initial residual = 0.00299946888, Final residual = 0.000269588893, No Iterations 3
GAMG:  Solving for f, Initial residual = 0.021782447, Final residual = 9.08378427e-05, No Iterations 1
smoothSolver:  Solving for v2, Initial residual = 0.0026512137, Final residual = 0.00017200675, No Iterations 4
ExecutionTime = 3450.5 s  ClockTime = 3453 s

wallHeatFlux wallHeatFlux output:

Wall heat fluxes [W]
room_SIDE2
    convective: 0
    radiative:  -0
    total:      0
    Temperature : min = 292.823849, max = 293.933076, average = 293.567146
room_FLOOR
    convective: 0
    radiative:  -0
    total:      0
    Temperature : min = 292.823848, max = 301.406858, average = 294.108431
room_CEILING
    convective: 0
    radiative:  -0
    total:      0
    Temperature : min = 293.932243, max = 293.932526, average = 293.932379
room_BACK
    convective: 0
    radiative:  -0
    total:      0
    Temperature : min = 292.829202, max = 293.932548, average = 293.614621
room_SIDE1
    convective: 0
    radiative:  -0
    total:      0
    Temperature : min = 292.823849, max = 293.933076, average = 293.566109
manikin
    convective: 981.305759
    radiative:  -0
    total:      981.305759
    Temperature : min = 307.15, max = 307.15, average = 307.15

yPlusRAS yplusRAS output:
    patch room_SIDE2 y+ : min = 0.335583294, max = 7.00810829, average = 5.14228438
    patch room_FLOOR y+ : min = 0.560961129, max = 7.20767375, average = 4.05033107
    patch room_CEILING y+ : min = 0.285069916, max = 6.61049483, average = 4.95227398
    patch room_BACK y+ : min = 0.333489229, max = 50.3043628, average = 4.97216068
    patch room_SIDE1 y+ : min = 0.442362685, max = 6.97329505, average = 5.13727822
    patch manikin y+ : min = 0.0569494543, max = 105.325365, average = 1.67522053

yPlusRASLowRe yplusRASLowRe output:
room_SIDE2
    y+ : min = 0.335583294, max = 7.00810829, average = 5.14228438
    y : min = 0.000544684214, max = 0.00250000001, average = 0.00234603179
room_FLOOR
    y+ : min = 0.560961129, max = 7.20767375, average = 4.05033107
    y : min = 0.000139430812, max = 0.00249999971, average = 0.00161917022
room_CEILING
    y+ : min = 0.285069916, max = 6.61049483, average = 4.95227398
    y : min = 0.000647142072, max = 0.00249999973, average = 0.00231379284
room_BACK
    y+ : min = 0.333489229, max = 50.3043628, average = 4.97216068
    y : min = 0.000872666798, max = 0.00549005797, average = 0.00123342378
room_SIDE1
    y+ : min = 0.442362685, max = 6.97329505, average = 5.13727822
    y : min = 0.000544684643, max = 0.0025, average = 0.00234602486
manikin
    y+ : min = 0.0569494543, max = 105.325365, average = 1.67522053
    y : min = 4.97449872e-05, max = 0.00255854003, average = 0.000292020944

forceCoeffs forceCoeffs1 output:
    Cm    = -4492.4081
    Cd    = -95.9412088
    Cl    = -8650.17135
    Cl(f) = -8817.49378
    Cl(r) = 167.322429

Time = 6250

DILUPBiCG:  Solving for Ux, Initial residual = 0.000394151525, Final residual = 1.76824116e-05, No Iterations 1
DILUPBiCG:  Solving for Uy, Initial residual = 0.000340973399, Final residual = 3.14293601e-06, No Iterations 2
DILUPBiCG:  Solving for Uz, Initial residual = 0.000300261564, Final residual = 6.791582e-07, No Iterations 2
DILUPBiCG:  Solving for h, Initial residual = 0.000185530326, Final residual = 3.47125141e-06, No Iterations 1
GAMG:  Solving for p_rgh, Initial residual = 0.00210347897, Final residual = 1.88832281e-05, No Iterations 3
time step continuity errors : sum local = 2.84731667e-06, global = 1.93398725e-07, cumulative = 5.25505053e-05
rho max/min : 1.56799902 1.07997558
smoothSolver:  Solving for epsilon, Initial residual = 0.00195265328, Final residual = 9.26341001e-05, No Iterations 4
smoothSolver:  Solving for k, Initial residual = 0.00333685998, Final residual = 0.000293814836, No Iterations 3
GAMG:  Solving for f, Initial residual = 0.0214477663, Final residual = 8.75586314e-05, No Iterations 1
smoothSolver:  Solving for v2, Initial residual = 0.00268799273, Final residual = 0.00017175776, No Iterations 4
ExecutionTime = 3465.31 s  ClockTime = 3468 s

wallHeatFlux wallHeatFlux output:

Wall heat fluxes [W]
room_SIDE2
    convective: 0
    radiative:  -0
    total:      0
    Temperature : min = 292.823849, max = 293.933076, average = 293.567127
room_FLOOR
    convective: 0
    radiative:  -0
    total:      0
    Temperature : min = 292.823848, max = 301.401719, average = 294.109888
room_CEILING
    convective: 0
    radiative:  -0
    total:      0
    Temperature : min = 293.932242, max = 293.932525, average = 293.932379
room_BACK
    convective: 0
    radiative:  -0
    total:      0
    Temperature : min = 292.829205, max = 293.932548, average = 293.614751
room_SIDE1
    convective: 0
    radiative:  -0
    total:      0
    Temperature : min = 292.823849, max = 293.933076, average = 293.566092
manikin
    convective: 981.568405
    radiative:  -0
    total:      981.568405
    Temperature : min = 307.15, max = 307.15, average = 307.15

yPlusRAS yplusRAS output:
    patch room_SIDE2 y+ : min = 0.336386811, max = 7.00880426, average = 5.14096754
    patch room_FLOOR y+ : min = 0.545665562, max = 7.21954249, average = 4.05009996
    patch room_CEILING y+ : min = 0.280854915, max = 6.61049318, average = 4.95113814
    patch room_BACK y+ : min = 0.333061041, max = 50.3048457, average = 4.97134593
    patch room_SIDE1 y+ : min = 0.436399231, max = 6.97406511, average = 5.13609547
    patch manikin y+ : min = 0.0568360768, max = 104.690903, average = 1.67492262

yPlusRASLowRe yplusRASLowRe output:
room_SIDE2
    y+ : min = 0.336386811, max = 7.00880426, average = 5.14096754
    y : min = 0.000544684214, max = 0.00250000001, average = 0.00234603179
room_FLOOR
    y+ : min = 0.545665562, max = 7.21954249, average = 4.05009996
    y : min = 0.000139430812, max = 0.00249999971, average = 0.00161917022
room_CEILING
    y+ : min = 0.280854915, max = 6.61049318, average = 4.95113814
    y : min = 0.000647142072, max = 0.00249999973, average = 0.00231379284
room_BACK
    y+ : min = 0.333061041, max = 50.3048457, average = 4.97134593
    y : min = 0.000872666798, max = 0.00549005797, average = 0.00123342378
room_SIDE1
    y+ : min = 0.436399231, max = 6.97406511, average = 5.13609547
    y : min = 0.000544684643, max = 0.0025, average = 0.00234602486
manikin
    y+ : min = 0.0568360768, max = 104.690903, average = 1.67492262
    y : min = 4.97449872e-05, max = 0.00255854003, average = 0.000292020944

forceCoeffs forceCoeffs1 output:
    Cm    = -4492.41918
    Cd    = -95.9925465
    Cl    = -8650.18152
    Cl(f) = -8817.50994
    Cl(r) = 167.328419

Time = 6251

DILUPBiCG:  Solving for Ux, Initial residual = 0.000393744941, Final residual = 1.42817252e-05, No Iterations 1
DILUPBiCG:  Solving for Uy, Initial residual = 0.000341335331, Final residual = 8.09431965e-07, No Iterations 2
DILUPBiCG:  Solving for Uz, Initial residual = 0.00030049483, Final residual = 7.24636698e-07, No Iterations 2
DILUPBiCG:  Solving for h, Initial residual = 0.000184808767, Final residual = 3.45874529e-06, No Iterations 1
GAMG:  Solving for p_rgh, Initial residual = 0.00210407924, Final residual = 1.16077313e-05, No Iterations 4
time step continuity errors : sum local = 1.75090077e-06, global = 1.51669361e-07, cumulative = 5.27021747e-05
rho max/min : 1.55518991 1.07943827
smoothSolver:  Solving for epsilon, Initial residual = 0.00211818683, Final residual = 0.000101837176, No Iterations 4
smoothSolver:  Solving for k, Initial residual = 0.00371661481, Final residual = 0.000322843743, No Iterations 3
GAMG:  Solving for f, Initial residual = 0.019704426, Final residual = 7.89074502e-05, No Iterations 1
smoothSolver:  Solving for v2, Initial residual = 0.00253912217, Final residual = 0.000165249222, No Iterations 4
ExecutionTime = 3480.62 s  ClockTime = 3483 s

wallHeatFlux wallHeatFlux output:

Wall heat fluxes [W]
room_SIDE2
    convective: 0
    radiative:  -0
    total:      0
    Temperature : min = 292.823849, max = 293.933076, average = 293.567108
room_FLOOR
    convective: 0
    radiative:  -0
    total:      0
    Temperature : min = 292.823848, max = 301.396608, average = 294.111341
room_CEILING
    convective: 0
    radiative:  -0
    total:      0
    Temperature : min = 293.932241, max = 293.932525, average = 293.932378
room_BACK
    convective: 0
    radiative:  -0
    total:      0
    Temperature : min = 292.829208, max = 293.932548, average = 293.614881
room_SIDE1
    convective: 0
    radiative:  -0
    total:      0
    Temperature : min = 292.823849, max = 293.933076, average = 293.566074
manikin
    convective: 981.828474
    radiative:  -0
    total:      981.828474
    Temperature : min = 307.15, max = 307.15, average = 307.15

yPlusRAS yplusRAS output:
    patch room_SIDE2 y+ : min = 0.33721058, max = 7.00950059, average = 5.13964093
    patch room_FLOOR y+ : min = 0.530762854, max = 7.23142529, average = 4.04988737
    patch room_CEILING y+ : min = 0.276754803, max = 6.61049163, average = 4.94999469
    patch room_BACK y+ : min = 0.332631385, max = 50.3053399, average = 4.97053115
    patch room_SIDE1 y+ : min = 0.430429768, max = 6.97483282, average = 5.13490395
    patch manikin y+ : min = 0.0567456352, max = 103.965196, average = 1.67461973

yPlusRASLowRe yplusRASLowRe output:
room_SIDE2
    y+ : min = 0.33721058, max = 7.00950059, average = 5.13964093
    y : min = 0.000544684214, max = 0.00250000001, average = 0.00234603179
room_FLOOR
    y+ : min = 0.530762854, max = 7.23142529, average = 4.04988737
    y : min = 0.000139430812, max = 0.00249999971, average = 0.00161917022
room_CEILING
    y+ : min = 0.276754803, max = 6.61049163, average = 4.94999469
    y : min = 0.000647142072, max = 0.00249999973, average = 0.00231379284
room_BACK
    y+ : min = 0.332631385, max = 50.3053399, average = 4.97053115
    y : min = 0.000872666798, max = 0.00549005797, average = 0.00123342378
room_SIDE1
    y+ : min = 0.430429768, max = 6.97483282, average = 5.13490395
    y : min = 0.000544684643, max = 0.0025, average = 0.00234602486
manikin
    y+ : min = 0.0567456352, max = 103.965196, average = 1.67461973
    y : min = 4.97449872e-05, max = 0.00255854003, average = 0.000292020944

forceCoeffs forceCoeffs1 output:
    Cm    = -4492.43299
    Cd    = -96.0476322
    Cl    = -8650.19356
    Cl(f) = -8817.52977
    Cl(r) = 167.336206

Time = 6252

DILUPBiCG:  Solving for Ux, Initial residual = 0.000392711665, Final residual = 1.10679646e-05, No Iterations 1
DILUPBiCG:  Solving for Uy, Initial residual = 0.000342454376, Final residual = 9.87831082e-07, No Iterations 2
DILUPBiCG:  Solving for Uz, Initial residual = 0.000300660028, Final residual = 7.92960096e-07, No Iterations 2
DILUPBiCG:  Solving for h, Initial residual = 0.000184093841, Final residual = 3.44608392e-06, No Iterations 1
GAMG:  Solving for p_rgh, Initial residual = 0.00211401262, Final residual = 1.85567436e-05, No Iterations 3
time step continuity errors : sum local = 2.80001453e-06, global = 2.0451788e-07, cumulative = 5.29066925e-05
rho max/min : 1.54111268 1.07891342
smoothSolver:  Solving for epsilon, Initial residual = 0.00233827233, Final residual = 0.000113232955, No Iterations 4
smoothSolver:  Solving for k, Initial residual = 0.00413783826, Final residual = 0.000357406103, No Iterations 3
