/*---------------------------------------------------------------------------*\
| =========                 |                                                 |
| \\      /  F ield         | OpenFOAM: The Open Source CFD Toolbox           |
|  \\    /   O peration     | Version:  2.3.1                                 |
|   \\  /    A nd           | Web:      www.OpenFOAM.org                      |
|    \\/     M anipulation  |                                                 |
\*---------------------------------------------------------------------------*/
Build  : 2.3.1-bcfaaa7b8660
Exec   : buoyantSimpleFoam -parallel
Date   : May 19 2017
Time   : 12:41:02
Host   : "ubuntu"
PID    : 8024
Case   : /home/cong/Desktop/AIVC/Case5
nProcs : 4
Slaves : 
3
(
"ubuntu.8025"
"ubuntu.8026"
"ubuntu.8027"
)

Pstream initialized with:
    floatTransfer      : 0
    nProcsSimpleSum    : 0
    commsType          : nonBlocking
    polling iterations : 0
sigFpe : Enabling floating point exception trapping (FOAM_SIGFPE).
fileModificationChecking : Monitoring run-time modified files using timeStampMaster
allowSystemOperations : Allowing user-supplied system call operations

// * * * * * * * * * * * * * * * * * * * * * * * * * * * * * * * * * * * * * //
Create time

Create mesh for time = 6000


Reading g
Reading thermophysical properties

Selecting thermodynamics package 
{
    type            heRhoThermo;
    mixture         pureMixture;
    transport       const;
    thermo          hConst;
    equationOfState perfectGas;
    specie          specie;
    energy          sensibleEnthalpy;
}

Reading field U

Reading/calculating face flux field phi

Creating turbulence model

Selecting RAS turbulence model v2f
v2fCoeffs
{
    Cmu             0.22;
    CmuKEps         0.09;
    C1              1.4;
    C2              0.3;
    CL              0.23;
    Ceta            70;
    Ceps2           1.9;
    Ceps3           -0.33;
    sigmaK          1;
    sigmaEps        1.3;
    Prt             1;
}

Calculating field g.h

Reading field p_rgh

No finite volume options present

Selecting radiationModel none

SIMPLE: convergence criteria
    field "(p_rgh|p)"	 tolerance 1e-07
    field U	 tolerance 1e-08
    field h	 tolerance 1e-08
    field "(k|epsilon|omega)"	 tolerance 1e-08


Starting time loop

forceCoeffs forceCoeffs1:
    Not including porosity effects

Time = 6001

DILUPBiCG:  Solving for Ux, Initial residual = 0.00991816711, Final residual = 6.64585353e-05, No Iterations 1
DILUPBiCG:  Solving for Uy, Initial residual = 0.00576628494, Final residual = 4.91041176e-05, No Iterations 1
DILUPBiCG:  Solving for Uz, Initial residual = 0.00926193967, Final residual = 6.35960833e-05, No Iterations 1
DILUPBiCG:  Solving for h, Initial residual = 0.00247088368, Final residual = 2.70210537e-05, No Iterations 1
GAMG:  Solving for p_rgh, Initial residual = 0.118551429, Final residual = 0.000625279719, No Iterations 3
time step continuity errors : sum local = 0.000130158725, global = -7.41732479e-05, cumulative = -7.41732479e-05
rho max/min : 1.2035666 1.14723596
smoothSolver:  Solving for epsilon, Initial residual = 1, Final residual = 0.0476320106, No Iterations 4
smoothSolver:  Solving for k, Initial residual = 1, Final residual = 0.0509602484, No Iterations 3
GAMG:  Solving for f, Initial residual = 1, Final residual = 0.00220371675, No Iterations 1
smoothSolver:  Solving for v2, Initial residual = 1, Final residual = 0.0986046348, No Iterations 2
ExecutionTime = 16.27 s  ClockTime = 16 s

wallHeatFlux wallHeatFlux output:

Wall heat fluxes [W]
room_SIDE2
    convective: 0
    radiative:  -0
    total:      0
    Temperature : min = 292.823845, max = 293.933256, average = 293.575559
room_FLOOR
    convective: 0
    radiative:  -0
    total:      0
    Temperature : min = 292.823541, max = 306.539045, average = 293.469188
room_CEILING
    convective: 0
    radiative:  -0
    total:      0
    Temperature : min = 293.932362, max = 293.932534, average = 293.932416
room_BACK
    convective: 0
    radiative:  -0
    total:      0
    Temperature : min = 292.817587, max = 293.932564, average = 293.603436
room_SIDE1
    convective: 0
    radiative:  -0
    total:      0
    Temperature : min = 292.823845, max = 293.933256, average = 293.572815
manikin
    convective: 26185.4292
    radiative:  -0
    total:      26185.4292
    Temperature : min = 307.15, max = 307.15, average = 307.15

yPlusRAS yplusRAS output:
    no mutWallFunction patches

yPlusRASLowRe yplusRASLowRe output:
room_SIDE2
    y+ : min = 0.230347961, max = 6.16946075, average = 2.90417436
    y : min = 0.000544684214, max = 0.00250000001, average = 0.00234603179
room_FLOOR
    y+ : min = 0.0800916182, max = 6.45679408, average = 2.21403077
    y : min = 0.000139430812, max = 0.00249999971, average = 0.00161917022
room_CEILING
    y+ : min = 0.217636421, max = 5.90028773, average = 2.70228048
    y : min = 0.000647142072, max = 0.00249999973, average = 0.00231379284
room_BACK
    y+ : min = 0.121121686, max = 51.3392726, average = 3.83278999
    y : min = 0.000872666798, max = 0.00549005797, average = 0.00123342378
room_SIDE1
    y+ : min = 0.254966711, max = 5.96406515, average = 2.9149728
    y : min = 0.000544684643, max = 0.0025, average = 0.00234602486
manikin
    y+ : min = 0.0214962201, max = 7.68434068, average = 0.799592567
    y : min = 4.97449872e-05, max = 0.00255854003, average = 0.000292020944

forceCoeffs forceCoeffs1 output:
    Cm    = -4493.14177
    Cd    = -72.0550997
    Cl    = -8649.54896
    Cl(f) = -8817.91625
    Cl(r) = 168.367291

Time = 6002

DILUPBiCG:  Solving for Ux, Initial residual = 0.0881330017, Final residual = 0.000100333746, No Iterations 1
DILUPBiCG:  Solving for Uy, Initial residual = 0.100001604, Final residual = 0.00016530251, No Iterations 1
DILUPBiCG:  Solving for Uz, Initial residual = 0.0876348529, Final residual = 0.000108113585, No Iterations 1
DILUPBiCG:  Solving for h, Initial residual = 0.00230375332, Final residual = 2.52763373e-05, No Iterations 1
GAMG:  Solving for p_rgh, Initial residual = 0.133479189, Final residual = 0.000966493875, No Iterations 3
time step continuity errors : sum local = 0.000180485935, global = -8.40857611e-05, cumulative = -0.000158259009
rho max/min : 1.20362717 1.14726321
smoothSolver:  Solving for epsilon, Initial residual = 0.851757898, Final residual = 0.0721389811, No Iterations 4
smoothSolver:  Solving for k, Initial residual = 0.279410796, Final residual = 0.0142963513, No Iterations 2
GAMG:  Solving for f, Initial residual = 0.999970939, Final residual = 0.00384366521, No Iterations 1
smoothSolver:  Solving for v2, Initial residual = 0.529018207, Final residual = 0.0277303116, No Iterations 2
ExecutionTime = 30.16 s  ClockTime = 30 s

wallHeatFlux wallHeatFlux output:

Wall heat fluxes [W]
room_SIDE2
    convective: 0
    radiative:  -0
    total:      0
    Temperature : min = 292.823845, max = 293.933248, average = 293.575275
room_FLOOR
    convective: 0
    radiative:  -0
    total:      0
    Temperature : min = 292.823543, max = 306.557246, average = 293.487899
room_CEILING
    convective: 0
    radiative:  -0
    total:      0
    Temperature : min = 293.932361, max = 293.932534, average = 293.932415
room_BACK
    convective: 0
    radiative:  -0
    total:      0
    Temperature : min = 292.818987, max = 293.932564, average = 293.603235
room_SIDE1
    convective: 0
    radiative:  -0
    total:      0
    Temperature : min = 292.823845, max = 293.933248, average = 293.572625
manikin
    convective: 25373.3906
    radiative:  -0
    total:      25373.3906
    Temperature : min = 307.15, max = 307.15, average = 307.15

yPlusRAS yplusRAS output:
    no mutWallFunction patches

yPlusRASLowRe yplusRASLowRe output:
room_SIDE2
    y+ : min = 0.242397622, max = 5.59376033, average = 2.91205453
    y : min = 0.000544684214, max = 0.00250000001, average = 0.00234603179
room_FLOOR
    y+ : min = 0.0818320603, max = 5.85470306, average = 2.22376742
    y : min = 0.000139430812, max = 0.00249999971, average = 0.00161917022
room_CEILING
    y+ : min = 0.154929449, max = 5.42417674, average = 2.74563978
    y : min = 0.000647142072, max = 0.00249999973, average = 0.00231379284
room_BACK
    y+ : min = 0.261804233, max = 48.3620519, average = 3.56144912
    y : min = 0.000872666798, max = 0.00549005797, average = 0.00123342378
room_SIDE1
    y+ : min = 0.295079454, max = 5.41985036, average = 2.92321777
    y : min = 0.000544684643, max = 0.0025, average = 0.00234602486
manikin
    y+ : min = 0.0241469997, max = 7.48226573, average = 0.797084839
    y : min = 4.97449872e-05, max = 0.00255854003, average = 0.000292020944

forceCoeffs forceCoeffs1 output:
    Cm    = -4493.73333
    Cd    = -90.5954332
    Cl    = -8652.17391
    Cl(f) = -8819.82028
    Cl(r) = 167.646369

Time = 6003

DILUPBiCG:  Solving for Ux, Initial residual = 0.0381888686, Final residual = 0.000112689899, No Iterations 1
DILUPBiCG:  Solving for Uy, Initial residual = 0.0323115526, Final residual = 0.000138709911, No Iterations 1
DILUPBiCG:  Solving for Uz, Initial residual = 0.0374144912, Final residual = 0.000125754521, No Iterations 1
DILUPBiCG:  Solving for h, Initial residual = 0.00217646522, Final residual = 2.39407725e-05, No Iterations 1
GAMG:  Solving for p_rgh, Initial residual = 0.173209789, Final residual = 0.000699758547, No Iterations 3
time step continuity errors : sum local = 0.000149087054, global = -4.65372016e-05, cumulative = -0.000204796211
rho max/min : 1.20379127 1.14490503
smoothSolver:  Solving for epsilon, Initial residual = 0.703789769, Final residual = 0.0661298225, No Iterations 4
smoothSolver:  Solving for k, Initial residual = 0.102793246, Final residual = 0.00567145212, No Iterations 3
GAMG:  Solving for f, Initial residual = 0.637558874, Final residual = 0.0039462652, No Iterations 1
smoothSolver:  Solving for v2, Initial residual = 0.18970043, Final residual = 0.00851452914, No Iterations 3
ExecutionTime = 43.84 s  ClockTime = 44 s

wallHeatFlux wallHeatFlux output:

Wall heat fluxes [W]
room_SIDE2
    convective: 0
    radiative:  -0
    total:      0
    Temperature : min = 292.823845, max = 293.93324, average = 293.575032
room_FLOOR
    convective: 0
    radiative:  -0
    total:      0
    Temperature : min = 292.823556, max = 306.572767, average = 293.506192
room_CEILING
    convective: 0
    radiative:  -0
    total:      0
    Temperature : min = 293.932361, max = 293.932534, average = 293.932415
room_BACK
    convective: 0
    radiative:  -0
    total:      0
    Temperature : min = 292.820781, max = 293.932564, average = 293.603068
room_SIDE1
    convective: 0
    radiative:  -0
    total:      0
    Temperature : min = 292.823845, max = 293.93324, average = 293.572466
manikin
    convective: 24706.6887
    radiative:  -0
    total:      24706.6887
    Temperature : min = 307.15, max = 307.15, average = 307.15

yPlusRAS yplusRAS output:
    no mutWallFunction patches

yPlusRASLowRe yplusRASLowRe output:
room_SIDE2
    y+ : min = 0.27017795, max = 5.14104219, average = 2.92401672
    y : min = 0.000544684214, max = 0.00250000001, average = 0.00234603179
room_FLOOR
    y+ : min = 0.0831225962, max = 5.44473832, average = 2.2462586
    y : min = 0.000139430812, max = 0.00249999971, average = 0.00161917022
room_CEILING
    y+ : min = 0.261054958, max = 5.25178689, average = 2.77807839
    y : min = 0.000647142072, max = 0.00249999973, average = 0.00231379284
room_BACK
    y+ : min = 0.170184143, max = 46.1538975, average = 3.38255712
    y : min = 0.000872666798, max = 0.00549005797, average = 0.00123342378
room_SIDE1
    y+ : min = 0.276003822, max = 4.99001982, average = 2.93542309
    y : min = 0.000544684643, max = 0.0025, average = 0.00234602486
manikin
    y+ : min = 0.033519474, max = 7.3000104, average = 0.831525976
    y : min = 4.97449872e-05, max = 0.00255854003, average = 0.000292020944

forceCoeffs forceCoeffs1 output:
    Cm    = -4493.84273
    Cd    = -95.3271289
    Cl    = -8652.65313
    Cl(f) = -8820.16929
    Cl(r) = 167.516169

Time = 6004

DILUPBiCG:  Solving for Ux, Initial residual = 0.0155498133, Final residual = 0.000108682843, No Iterations 1
DILUPBiCG:  Solving for Uy, Initial residual = 0.0393020291, Final residual = 0.000206521595, No Iterations 1
DILUPBiCG:  Solving for Uz, Initial residual = 0.0155986066, Final residual = 0.000118592783, No Iterations 1
DILUPBiCG:  Solving for h, Initial residual = 0.00207347722, Final residual = 2.2820719e-05, No Iterations 1
GAMG:  Solving for p_rgh, Initial residual = 0.225494685, Final residual = 0.00108001896, No Iterations 3
time step continuity errors : sum local = 0.000252840718, global = 5.38159687e-05, cumulative = -0.000150980242
rho max/min : 1.2053879 1.14742818
smoothSolver:  Solving for epsilon, Initial residual = 0.570310552, Final residual = 0.0310292682, No Iterations 5
smoothSolver:  Solving for k, Initial residual = 0.121082335, Final residual = 0.010990765, No Iterations 3
GAMG:  Solving for f, Initial residual = 0.317629672, Final residual = 0.00141539344, No Iterations 1
smoothSolver:  Solving for v2, Initial residual = 0.111045485, Final residual = 0.00883187509, No Iterations 3
ExecutionTime = 57.59 s  ClockTime = 58 s

wallHeatFlux wallHeatFlux output:

Wall heat fluxes [W]
room_SIDE2
    convective: 0
    radiative:  -0
    total:      0
    Temperature : min = 292.823845, max = 293.933233, average = 293.574821
room_FLOOR
    convective: 0
    radiative:  -0
    total:      0
    Temperature : min = 292.823588, max = 306.586345, average = 293.524015
room_CEILING
    convective: 0
    radiative:  -0
    total:      0
    Temperature : min = 293.932361, max = 293.932534, average = 293.932415
room_BACK
    convective: 0
    radiative:  -0
    total:      0
    Temperature : min = 292.821901, max = 293.932563, average = 293.602926
room_SIDE1
    convective: 0
    radiative:  -0
    total:      0
    Temperature : min = 292.823845, max = 293.933233, average = 293.572331
manikin
    convective: 24143.3699
    radiative:  -0
    total:      24143.3699
    Temperature : min = 307.15, max = 307.15, average = 307.15

yPlusRAS yplusRAS output:
    no mutWallFunction patches

yPlusRASLowRe yplusRASLowRe output:
room_SIDE2
    y+ : min = 0.310574352, max = 4.91493976, average = 2.95411711
    y : min = 0.000544684214, max = 0.00250000001, average = 0.00234603179
room_FLOOR
    y+ : min = 0.0613517696, max = 5.27393309, average = 2.27845918
    y : min = 0.000139430812, max = 0.00249999971, average = 0.00161917022
room_CEILING
    y+ : min = 0.332446076, max = 5.85745296, average = 2.81991825
    y : min = 0.000647142072, max = 0.00249999973, average = 0.00231379284
room_BACK
    y+ : min = 0.1570325, max = 44.5016694, average = 3.28217114
    y : min = 0.000872666798, max = 0.00549005797, average = 0.00123342378
room_SIDE1
    y+ : min = 0.273953985, max = 4.91262572, average = 2.96598564
    y : min = 0.000544684643, max = 0.0025, average = 0.00234602486
manikin
    y+ : min = 0.0272502686, max = 7.13718161, average = 0.860508647
    y : min = 4.97449872e-05, max = 0.00255854003, average = 0.000292020944

forceCoeffs forceCoeffs1 output:
    Cm    = -4493.6811
    Cd    = -97.080922
    Cl    = -8652.3991
    Cl(f) = -8819.88065
    Cl(r) = 167.481556

Time = 6005

DILUPBiCG:  Solving for Ux, Initial residual = 0.00923334643, Final residual = 7.86422985e-05, No Iterations 1
DILUPBiCG:  Solving for Uy, Initial residual = 0.0201783372, Final residual = 0.000135813617, No Iterations 1
DILUPBiCG:  Solving for Uz, Initial residual = 0.00939378954, Final residual = 8.72489925e-05, No Iterations 1
DILUPBiCG:  Solving for h, Initial residual = 0.00198736035, Final residual = 2.19502963e-05, No Iterations 1
GAMG:  Solving for p_rgh, Initial residual = 0.212474644, Final residual = 0.00154293195, No Iterations 2
time step continuity errors : sum local = 0.00037123268, global = 0.000156418475, cumulative = 5.43823307e-06
rho max/min : 1.20456395 1.14746105
smoothSolver:  Solving for epsilon, Initial residual = 0.475934627, Final residual = 0.0252612416, No Iterations 5
smoothSolver:  Solving for k, Initial residual = 0.113420513, Final residual = 0.00591491649, No Iterations 4
GAMG:  Solving for f, Initial residual = 0.314413295, Final residual = 0.00119785603, No Iterations 1
smoothSolver:  Solving for v2, Initial residual = 0.113491167, Final residual = 0.00824561395, No Iterations 3
ExecutionTime = 70.97 s  ClockTime = 71 s

wallHeatFlux wallHeatFlux output:

Wall heat fluxes [W]
room_SIDE2
    convective: 0
    radiative:  -0
    total:      0
    Temperature : min = 292.823845, max = 293.933227, average = 293.574634
room_FLOOR
    convective: 0
    radiative:  -0
    total:      0
    Temperature : min = 292.823613, max = 306.598567, average = 293.541368
room_CEILING
    convective: 0
    radiative:  -0
    total:      0
    Temperature : min = 293.93236, max = 293.932534, average = 293.932415
room_BACK
    convective: 0
    radiative:  -0
    total:      0
    Temperature : min = 292.822877, max = 293.932563, average = 293.602803
room_SIDE1
    convective: 0
    radiative:  -0
    total:      0
    Temperature : min = 292.823845, max = 293.933227, average = 293.572212
manikin
    convective: 23654.7773
    radiative:  -0
    total:      23654.7773
    Temperature : min = 307.15, max = 307.15, average = 307.15

yPlusRAS yplusRAS output:
    no mutWallFunction patches

yPlusRASLowRe yplusRASLowRe output:
room_SIDE2
    y+ : min = 0.198871175, max = 5.06211862, average = 2.99026171
    y : min = 0.000544684214, max = 0.00250000001, average = 0.00234603179
room_FLOOR
    y+ : min = 0.105476497, max = 5.15688032, average = 2.30946921
    y : min = 0.000139430812, max = 0.00249999971, average = 0.00161917022
room_CEILING
    y+ : min = 0.247349212, max = 6.4657383, average = 2.86158838
    y : min = 0.000647142072, max = 0.00249999973, average = 0.00231379284
room_BACK
    y+ : min = 0.14710444, max = 43.4134757, average = 3.22917694
    y : min = 0.000872666798, max = 0.00549005797, average = 0.00123342378
room_SIDE1
    y+ : min = 0.212790981, max = 5.06047475, average = 3.00229597
    y : min = 0.000544684643, max = 0.0025, average = 0.00234602486
manikin
    y+ : min = 0.0248125116, max = 7.022388, average = 0.878909113
    y : min = 4.97449872e-05, max = 0.00255854003, average = 0.000292020944

forceCoeffs forceCoeffs1 output:
    Cm    = -4493.58403
    Cd    = -97.6357979
    Cl    = -8652.22361
    Cl(f) = -8819.69583
    Cl(r) = 167.472224

Time = 6006

DILUPBiCG:  Solving for Ux, Initial residual = 0.00602642808, Final residual = 5.75772731e-05, No Iterations 1
DILUPBiCG:  Solving for Uy, Initial residual = 0.0103883882, Final residual = 9.30015345e-05, No Iterations 1
DILUPBiCG:  Solving for Uz, Initial residual = 0.006281447, Final residual = 6.28715672e-05, No Iterations 1
DILUPBiCG:  Solving for h, Initial residual = 0.00191364598, Final residual = 2.12640322e-05, No Iterations 1
GAMG:  Solving for p_rgh, Initial residual = 0.16209589, Final residual = 0.00140057931, No Iterations 2
time step continuity errors : sum local = 0.000345529749, global = 0.000228978518, cumulative = 0.000234416751
rho max/min : 1.20465037 1.14743957
smoothSolver:  Solving for epsilon, Initial residual = 0.389954306, Final residual = 0.0368766489, No Iterations 4
smoothSolver:  Solving for k, Initial residual = 0.0894956342, Final residual = 0.00434410721, No Iterations 4
GAMG:  Solving for f, Initial residual = 0.228745451, Final residual = 0.000788537415, No Iterations 1
smoothSolver:  Solving for v2, Initial residual = 0.108172516, Final residual = 0.00714223594, No Iterations 3
ExecutionTime = 85.13 s  ClockTime = 85 s

wallHeatFlux wallHeatFlux output:

Wall heat fluxes [W]
room_SIDE2
    convective: 0
    radiative:  -0
    total:      0
    Temperature : min = 292.823845, max = 293.93322, average = 293.574467
room_FLOOR
    convective: 0
    radiative:  -0
    total:      0
    Temperature : min = 292.823648, max = 306.60983, average = 293.558254
room_CEILING
    convective: 0
    radiative:  -0
    total:      0
    Temperature : min = 293.93236, max = 293.932534, average = 293.932415
room_BACK
    convective: 0
    radiative:  -0
    total:      0
    Temperature : min = 292.823705, max = 293.932563, average = 293.602695
room_SIDE1
    convective: 0
    radiative:  -0
    total:      0
    Temperature : min = 292.823845, max = 293.93322, average = 293.572107
manikin
    convective: 23221.2792
    radiative:  -0
    total:      23221.2792
    Temperature : min = 307.15, max = 307.15, average = 307.15

yPlusRAS yplusRAS output:
    no mutWallFunction patches

yPlusRASLowRe yplusRASLowRe output:
room_SIDE2
    y+ : min = 0.158649588, max = 5.30684159, average = 3.02738375
    y : min = 0.000544684214, max = 0.00250000001, average = 0.00234603179
room_FLOOR
    y+ : min = 0.101875241, max = 5.30855129, average = 2.33970288
    y : min = 0.000139430812, max = 0.00249999971, average = 0.00161917022
room_CEILING
    y+ : min = 0.248475179, max = 6.47866742, average = 2.90065283
    y : min = 0.000647142072, max = 0.00249999973, average = 0.00231379284
room_BACK
    y+ : min = 0.227352898, max = 42.6107833, average = 3.20575212
    y : min = 0.000872666798, max = 0.00549005797, average = 0.00123342378
room_SIDE1
    y+ : min = 0.264911399, max = 5.30567281, average = 3.03923116
    y : min = 0.000544684643, max = 0.0025, average = 0.00234602486
manikin
    y+ : min = 0.0183310552, max = 6.9745415, average = 0.892894979
    y : min = 4.97449872e-05, max = 0.00255854003, average = 0.000292020944

forceCoeffs forceCoeffs1 output:
    Cm    = -4493.45555
    Cd    = -97.8802725
    Cl    = -8651.98367
    Cl(f) = -8819.44738
    Cl(r) = 167.463713

Time = 6007

DILUPBiCG:  Solving for Ux, Initial residual = 0.0045501953, Final residual = 5.45016631e-05, No Iterations 1
DILUPBiCG:  Solving for Uy, Initial residual = 0.00646063291, Final residual = 6.57313952e-05, No Iterations 1
DILUPBiCG:  Solving for Uz, Initial residual = 0.00468577026, Final residual = 5.37487605e-05, No Iterations 1
DILUPBiCG:  Solving for h, Initial residual = 0.00184934372, Final residual = 2.06901248e-05, No Iterations 1
GAMG:  Solving for p_rgh, Initial residual = 0.121074735, Final residual = 0.000681124152, No Iterations 3
time step continuity errors : sum local = 0.000174297799, global = 0.000103774465, cumulative = 0.000338191216
rho max/min : 1.20415683 1.14740706
smoothSolver:  Solving for epsilon, Initial residual = 0.306077334, Final residual = 0.0237481358, No Iterations 4
smoothSolver:  Solving for k, Initial residual = 0.0716823399, Final residual = 0.00678502093, No Iterations 3
GAMG:  Solving for f, Initial residual = 0.190553933, Final residual = 0.00054339773, No Iterations 1
smoothSolver:  Solving for v2, Initial residual = 0.110168859, Final residual = 0.00664325022, No Iterations 3
ExecutionTime = 98.63 s  ClockTime = 99 s

wallHeatFlux wallHeatFlux output:

Wall heat fluxes [W]
room_SIDE2
    convective: 0
    radiative:  -0
    total:      0
    Temperature : min = 292.823845, max = 293.933214, average = 293.574315
room_FLOOR
    convective: 0
    radiative:  -0
    total:      0
    Temperature : min = 292.823672, max = 306.620403, average = 293.574685
room_CEILING
    convective: 0
    radiative:  -0
    total:      0
    Temperature : min = 293.93236, max = 293.932534, average = 293.932415
room_BACK
    convective: 0
    radiative:  -0
    total:      0
    Temperature : min = 292.824458, max = 293.932563, average = 293.602598
room_SIDE1
    convective: 0
    radiative:  -0
    total:      0
    Temperature : min = 292.823845, max = 293.933214, average = 293.572011
manikin
    convective: 22829.3085
    radiative:  -0
    total:      22829.3085
    Temperature : min = 307.15, max = 307.15, average = 307.15

yPlusRAS yplusRAS output:
    no mutWallFunction patches

yPlusRASLowRe yplusRASLowRe output:
room_SIDE2
    y+ : min = 0.257562805, max = 5.56883617, average = 3.06084956
    y : min = 0.000544684214, max = 0.00250000001, average = 0.00234603179
room_FLOOR
    y+ : min = 0.0982806692, max = 5.57066453, average = 2.36712689
    y : min = 0.000139430812, max = 0.00249999971, average = 0.00161917022
room_CEILING
    y+ : min = 0.314617405, max = 6.18721979, average = 2.93515055
    y : min = 0.000647142072, max = 0.00249999973, average = 0.00231379284
room_BACK
    y+ : min = 0.238722791, max = 41.985515, average = 3.1953097
    y : min = 0.000872666798, max = 0.00549005797, average = 0.00123342378
room_SIDE1
    y+ : min = 0.242934103, max = 5.56736007, average = 3.07234531
    y : min = 0.000544684643, max = 0.0025, average = 0.00234602486
manikin
    y+ : min = 0.0191287863, max = 6.95942308, average = 0.905113148
    y : min = 4.97449872e-05, max = 0.00255854003, average = 0.000292020944

forceCoeffs forceCoeffs1 output:
    Cm    = -4493.15048
    Cd    = -98.0680848
    Cl    = -8651.39965
    Cl(f) = -8818.8503
    Cl(r) = 167.450652

Time = 6008

DILUPBiCG:  Solving for Ux, Initial residual = 0.00359086812, Final residual = 7.36407129e-05, No Iterations 1
DILUPBiCG:  Solving for Uy, Initial residual = 0.00426602418, Final residual = 5.54314323e-05, No Iterations 1
DILUPBiCG:  Solving for Uz, Initial residual = 0.00361300825, Final residual = 5.06583599e-05, No Iterations 1
DILUPBiCG:  Solving for h, Initial residual = 0.00179239637, Final residual = 2.01845383e-05, No Iterations 1
GAMG:  Solving for p_rgh, Initial residual = 0.0907919216, Final residual = 0.000634147666, No Iterations 2
time step continuity errors : sum local = 0.000166475437, global = 0.000102368918, cumulative = 0.000440560134
rho max/min : 1.20365589 1.147332
smoothSolver:  Solving for epsilon, Initial residual = 0.220996304, Final residual = 0.0114364167, No Iterations 4
smoothSolver:  Solving for k, Initial residual = 0.0645792231, Final residual = 0.00545987318, No Iterations 3
GAMG:  Solving for f, Initial residual = 0.169595739, Final residual = 0.000446531438, No Iterations 1
smoothSolver:  Solving for v2, Initial residual = 0.111747385, Final residual = 0.0067267762, No Iterations 3
ExecutionTime = 112.14 s  ClockTime = 112 s

wallHeatFlux wallHeatFlux output:

Wall heat fluxes [W]
room_SIDE2
    convective: 0
    radiative:  -0
    total:      0
    Temperature : min = 292.823845, max = 293.933208, average = 293.574177
room_FLOOR
    convective: 0
    radiative:  -0
    total:      0
    Temperature : min = 292.823713, max = 306.630479, average = 293.590681
room_CEILING
    convective: 0
    radiative:  -0
    total:      0
    Temperature : min = 293.93236, max = 293.932534, average = 293.932415
room_BACK
    convective: 0
    radiative:  -0
    total:      0
    Temperature : min = 292.825214, max = 293.932563, average = 293.602511
room_SIDE1
    convective: 0
    radiative:  -0
    total:      0
    Temperature : min = 292.823845, max = 293.933208, average = 293.571924
manikin
    convective: 22469.3773
    radiative:  -0
    total:      22469.3773
    Temperature : min = 307.15, max = 307.15, average = 307.15

yPlusRAS yplusRAS output:
    no mutWallFunction patches

yPlusRASLowRe yplusRASLowRe output:
room_SIDE2
    y+ : min = 0.286272235, max = 5.82263453, average = 3.08726288
    y : min = 0.000544684214, max = 0.00250000001, average = 0.00234603179
room_FLOOR
    y+ : min = 0.0955381092, max = 5.82457126, average = 2.38911409
    y : min = 0.000139430812, max = 0.00249999971, average = 0.00161917022
room_CEILING
    y+ : min = 0.369182636, max = 6.05446098, average = 2.96310905
    y : min = 0.000647142072, max = 0.00249999973, average = 0.00231379284
room_BACK
    y+ : min = 0.242851718, max = 41.5393978, average = 3.19167412
    y : min = 0.000872666798, max = 0.00549005797, average = 0.00123342378
room_SIDE1
    y+ : min = 0.224764686, max = 5.82103635, average = 3.09853633
    y : min = 0.000544684643, max = 0.0025, average = 0.00234602486
manikin
    y+ : min = 0.0153494463, max = 6.94513933, average = 0.91412305
    y : min = 4.97449872e-05, max = 0.00255854003, average = 0.000292020944

forceCoeffs forceCoeffs1 output:
    Cm    = -4493.1329
    Cd    = -98.1886139
    Cl    = -8651.36689
    Cl(f) = -8818.81635
    Cl(r) = 167.449457

Time = 6009

DILUPBiCG:  Solving for Ux, Initial residual = 0.00309893401, Final residual = 0.000148785078, No Iterations 1
DILUPBiCG:  Solving for Uy, Initial residual = 0.0034182133, Final residual = 8.43602147e-05, No Iterations 1
DILUPBiCG:  Solving for Uz, Initial residual = 0.00309601545, Final residual = 6.22918355e-05, No Iterations 1
DILUPBiCG:  Solving for h, Initial residual = 0.00174104123, Final residual = 1.97281905e-05, No Iterations 1
GAMG:  Solving for p_rgh, Initial residual = 0.0656822841, Final residual = 0.000451090735, No Iterations 2
time step continuity errors : sum local = 0.000123772879, global = 7.26579638e-05, cumulative = 0.000513218098
rho max/min : 1.20365138 1.14732802
smoothSolver:  Solving for epsilon, Initial residual = 0.13287337, Final residual = 0.00875636817, No Iterations 3
smoothSolver:  Solving for k, Initial residual = 0.064931628, Final residual = 0.00517432559, No Iterations 3
GAMG:  Solving for f, Initial residual = 0.167894514, Final residual = 0.000407590757, No Iterations 1
smoothSolver:  Solving for v2, Initial residual = 0.112654223, Final residual = 0.00710909647, No Iterations 3
ExecutionTime = 125.83 s  ClockTime = 126 s

wallHeatFlux wallHeatFlux output:

Wall heat fluxes [W]
room_SIDE2
    convective: 0
    radiative:  -0
    total:      0
    Temperature : min = 292.823845, max = 293.933202, average = 293.57405
room_FLOOR
    convective: 0
    radiative:  -0
    total:      0
    Temperature : min = 292.823778, max = 306.640185, average = 293.606263
room_CEILING
    convective: 0
    radiative:  -0
    total:      0
    Temperature : min = 293.93236, max = 293.932534, average = 293.932415
room_BACK
    convective: 0
    radiative:  -0
    total:      0
    Temperature : min = 292.825968, max = 293.932563, average = 293.602432
room_SIDE1
    convective: 0
    radiative:  -0
    total:      0
    Temperature : min = 292.823845, max = 293.933202, average = 293.571843
manikin
    convective: 22134.7498
    radiative:  -0
    total:      22134.7498
    Temperature : min = 307.15, max = 307.15, average = 307.15

yPlusRAS yplusRAS output:
    no mutWallFunction patches

yPlusRASLowRe yplusRASLowRe output:
room_SIDE2
    y+ : min = 0.263234319, max = 6.04676756, average = 3.10623864
    y : min = 0.000544684214, max = 0.00250000001, average = 0.00234603179
room_FLOOR
    y+ : min = 0.0937595939, max = 6.04877114, average = 2.40526586
    y : min = 0.000139430812, max = 0.00249999971, average = 0.00161917022
room_CEILING
    y+ : min = 0.37249985, max = 6.19504132, average = 2.98416218
    y : min = 0.000647142072, max = 0.00249999973, average = 0.00231379284
room_BACK
    y+ : min = 0.142261749, max = 41.2559525, average = 3.18992427
    y : min = 0.000872666798, max = 0.00549005797, average = 0.00123342378
room_SIDE1
    y+ : min = 0.213889126, max = 6.04514711, average = 3.1173228
    y : min = 0.000544684643, max = 0.0025, average = 0.00234602486
manikin
    y+ : min = 0.0184965028, max = 6.93175928, average = 0.919295018
    y : min = 4.97449872e-05, max = 0.00255854003, average = 0.000292020944

forceCoeffs forceCoeffs1 output:
    Cm    = -4493.0955
    Cd    = -98.2574792
    Cl    = -8651.29387
    Cl(f) = -8818.74243
    Cl(r) = 167.448565

Time = 6010

DILUPBiCG:  Solving for Ux, Initial residual = 0.00305641996, Final residual = 0.000133943461, No Iterations 1
DILUPBiCG:  Solving for Uy, Initial residual = 0.00312341333, Final residual = 0.000135671976, No Iterations 1
DILUPBiCG:  Solving for Uz, Initial residual = 0.00301175191, Final residual = 8.84422481e-05, No Iterations 1
DILUPBiCG:  Solving for h, Initial residual = 0.00169424786, Final residual = 1.9323165e-05, No Iterations 1
GAMG:  Solving for p_rgh, Initial residual = 0.0487189588, Final residual = 0.000441405837, No Iterations 2
time step continuity errors : sum local = 0.000124761796, global = 6.89956307e-05, cumulative = 0.000582213729
rho max/min : 1.20364122 1.14731855
smoothSolver:  Solving for epsilon, Initial residual = 0.0948697579, Final residual = 0.0035883391, No Iterations 3
smoothSolver:  Solving for k, Initial residual = 0.0630936934, Final residual = 0.0051812263, No Iterations 3
GAMG:  Solving for f, Initial residual = 0.19414763, Final residual = 0.000496804276, No Iterations 1
smoothSolver:  Solving for v2, Initial residual = 0.109480604, Final residual = 0.00754470837, No Iterations 3
ExecutionTime = 141.31 s  ClockTime = 142 s

wallHeatFlux wallHeatFlux output:

Wall heat fluxes [W]
room_SIDE2
    convective: 0
    radiative:  -0
    total:      0
    Temperature : min = 292.823845, max = 293.933197, average = 293.573932
room_FLOOR
    convective: 0
    radiative:  -0
    total:      0
    Temperature : min = 292.823845, max = 306.649604, average = 293.62145
room_CEILING
    convective: 0
    radiative:  -0
    total:      0
    Temperature : min = 293.93236, max = 293.932534, average = 293.932416
room_BACK
    convective: 0
    radiative:  -0
    total:      0
    Temperature : min = 292.826672, max = 293.932563, average = 293.602361
room_SIDE1
    convective: 0
    radiative:  -0
    total:      0
    Temperature : min = 292.823845, max = 293.933197, average = 293.571768
manikin
    convective: 21820.565
    radiative:  -0
    total:      21820.565
    Temperature : min = 307.15, max = 307.15, average = 307.15

yPlusRAS yplusRAS output:
    no mutWallFunction patches

yPlusRASLowRe yplusRASLowRe output:
room_SIDE2
    y+ : min = 0.252695893, max = 6.2281288, average = 3.11890455
    y : min = 0.000544684214, max = 0.00250000001, average = 0.00234603179
room_FLOOR
    y+ : min = 0.0937217822, max = 6.2301198, average = 2.4164157
    y : min = 0.000139430812, max = 0.00249999971, average = 0.00161917022
room_CEILING
    y+ : min = 0.355921959, max = 6.29126525, average = 2.99930948
    y : min = 0.000647142072, max = 0.00249999973, average = 0.00231379284
room_BACK
    y+ : min = 0.153140594, max = 41.1261516, average = 3.19123575
    y : min = 0.000872666798, max = 0.00549005797, average = 0.00123342378
room_SIDE1
    y+ : min = 0.205565467, max = 6.22656878, average = 3.12986437
    y : min = 0.000544684643, max = 0.0025, average = 0.00234602486
manikin
    y+ : min = 0.0236166941, max = 6.94192598, average = 0.921682005
    y : min = 4.97449872e-05, max = 0.00255854003, average = 0.000292020944

forceCoeffs forceCoeffs1 output:
    Cm    = -4493.03985
    Cd    = -98.2950551
    Cl    = -8651.1852
    Cl(f) = -8818.63246
    Cl(r) = 167.447253

Time = 6011

DILUPBiCG:  Solving for Ux, Initial residual = 0.00299370445, Final residual = 0.000154814989, No Iterations 1
DILUPBiCG:  Solving for Uy, Initial residual = 0.00299315647, Final residual = 0.000100358023, No Iterations 1
DILUPBiCG:  Solving for Uz, Initial residual = 0.00295792149, Final residual = 0.000119945852, No Iterations 1
DILUPBiCG:  Solving for h, Initial residual = 0.00165120115, Final residual = 1.89616186e-05, No Iterations 1
GAMG:  Solving for p_rgh, Initial residual = 0.0385369065, Final residual = 0.000173840671, No Iterations 3
time step continuity errors : sum local = 4.96474511e-05, global = 2.00361824e-05, cumulative = 0.000602249911
rho max/min : 1.20362607 1.14730413
smoothSolver:  Solving for epsilon, Initial residual = 0.106854464, Final residual = 0.00907540254, No Iterations 2
smoothSolver:  Solving for k, Initial residual = 0.0597390078, Final residual = 0.00524213307, No Iterations 3
GAMG:  Solving for f, Initial residual = 0.201408767, Final residual = 0.000661543687, No Iterations 1
smoothSolver:  Solving for v2, Initial residual = 0.103140282, Final residual = 0.00793218901, No Iterations 3
ExecutionTime = 154.96 s  ClockTime = 155 s

wallHeatFlux wallHeatFlux output:

Wall heat fluxes [W]
room_SIDE2
    convective: 0
    radiative:  -0
    total:      0
    Temperature : min = 292.823845, max = 293.933191, average = 293.573821
room_FLOOR
    convective: 0
    radiative:  -0
    total:      0
    Temperature : min = 292.823845, max = 306.658789, average = 293.636261
room_CEILING
    convective: 0
    radiative:  -0
    total:      0
    Temperature : min = 293.93236, max = 293.932534, average = 293.932416
room_BACK
    convective: 0
    radiative:  -0
    total:      0
    Temperature : min = 292.827275, max = 293.932563, average = 293.602295
room_SIDE1
    convective: 0
    radiative:  -0
    total:      0
    Temperature : min = 292.823845, max = 293.933191, average = 293.571697
manikin
    convective: 21523.2676
    radiative:  -0
    total:      21523.2676
    Temperature : min = 307.15, max = 307.15, average = 307.15

yPlusRAS yplusRAS output:
    no mutWallFunction patches

yPlusRASLowRe yplusRASLowRe output:
room_SIDE2
    y+ : min = 0.271010181, max = 6.35465344, average = 3.12587809
    y : min = 0.000544684214, max = 0.00250000001, average = 0.00234603179
room_FLOOR
    y+ : min = 0.091306916, max = 6.35676061, average = 2.42317793
    y : min = 0.000139430812, max = 0.00249999971, average = 0.00161917022
room_CEILING
    y+ : min = 0.332700657, max = 6.34813355, average = 3.00869215
    y : min = 0.000647142072, max = 0.00249999973, average = 0.00231379284
room_BACK
    y+ : min = 0.222395784, max = 41.1877911, average = 3.19356022
    y : min = 0.000872666798, max = 0.00549005797, average = 0.00123342378
room_SIDE1
    y+ : min = 0.197604648, max = 6.35359464, average = 3.13672738
    y : min = 0.000544684643, max = 0.0025, average = 0.00234602486
manikin
    y+ : min = 0.0284474332, max = 6.94802953, average = 0.922304077
    y : min = 4.97449872e-05, max = 0.00255854003, average = 0.000292020944

forceCoeffs forceCoeffs1 output:
    Cm    = -4492.97806
    Cd    = -98.3286769
    Cl    = -8651.06456
    Cl(f) = -8818.51034
    Cl(r) = 167.445781

Time = 6012

DILUPBiCG:  Solving for Ux, Initial residual = 0.00291547731, Final residual = 7.37483273e-07, No Iterations 2
DILUPBiCG:  Solving for Uy, Initial residual = 0.00294790844, Final residual = 8.32638413e-05, No Iterations 1
DILUPBiCG:  Solving for Uz, Initial residual = 0.0029079256, Final residual = 6.66265291e-07, No Iterations 2
DILUPBiCG:  Solving for h, Initial residual = 0.00161134109, Final residual = 1.86295222e-05, No Iterations 1
GAMG:  Solving for p_rgh, Initial residual = 0.031172237, Final residual = 0.000264394913, No Iterations 2
time step continuity errors : sum local = 7.52478273e-05, global = -2.60194201e-05, cumulative = 0.000576230491
rho max/min : 1.20360945 1.14728833
smoothSolver:  Solving for epsilon, Initial residual = 0.0844262466, Final residual = 0.00313218872, No Iterations 3
smoothSolver:  Solving for k, Initial residual = 0.0553621234, Final residual = 0.00522865976, No Iterations 3
GAMG:  Solving for f, Initial residual = 0.172371616, Final residual = 0.000598340488, No Iterations 1
smoothSolver:  Solving for v2, Initial residual = 0.0947691875, Final residual = 0.00812330561, No Iterations 3
ExecutionTime = 168.43 s  ClockTime = 169 s

wallHeatFlux wallHeatFlux output:

Wall heat fluxes [W]
room_SIDE2
    convective: 0
    radiative:  -0
    total:      0
    Temperature : min = 292.823845, max = 293.933186, average = 293.573718
room_FLOOR
    convective: 0
    radiative:  -0
    total:      0
    Temperature : min = 292.823845, max = 306.667772, average = 293.650713
room_CEILING
    convective: 0
    radiative:  -0
    total:      0
    Temperature : min = 293.93236, max = 293.932534, average = 293.932416
room_BACK
    convective: 0
    radiative:  -0
    total:      0
    Temperature : min = 292.827772, max = 293.932563, average = 293.602233
room_SIDE1
    convective: 0
    radiative:  -0
    total:      0
    Temperature : min = 292.823845, max = 293.933186, average = 293.57163
manikin
    convective: 21240.221
    radiative:  -0
    total:      21240.221
    Temperature : min = 307.15, max = 307.15, average = 307.15

yPlusRAS yplusRAS output:
    no mutWallFunction patches

yPlusRASLowRe yplusRASLowRe output:
room_SIDE2
    y+ : min = 0.263974064, max = 6.4108615, average = 3.12865351
    y : min = 0.000544684214, max = 0.00250000001, average = 0.00234603179
room_FLOOR
    y+ : min = 0.0866121426, max = 6.41302489, average = 2.42682665
    y : min = 0.000139430812, max = 0.00249999971, average = 0.00161917022
room_CEILING
    y+ : min = 0.282438456, max = 6.38693415, average = 3.0140954
    y : min = 0.000647142072, max = 0.00249999973, average = 0.00231379284
room_BACK
    y+ : min = 0.297265604, max = 41.4383863, average = 3.19263778
    y : min = 0.000872666798, max = 0.00549005797, average = 0.00123342378
room_SIDE1
    y+ : min = 0.190263936, max = 6.41014954, average = 3.13936797
    y : min = 0.000544684643, max = 0.0025, average = 0.00234602486
manikin
    y+ : min = 0.0329164612, max = 6.95012957, average = 0.921636292
    y : min = 4.97449872e-05, max = 0.00255854003, average = 0.000292020944

forceCoeffs forceCoeffs1 output:
    Cm    = -4492.99396
    Cd    = -98.3454133
    Cl    = -8651.09424
    Cl(f) = -8818.54108
    Cl(r) = 167.446836

Time = 6013

DILUPBiCG:  Solving for Ux, Initial residual = 0.00285776945, Final residual = 6.77455098e-07, No Iterations 2
DILUPBiCG:  Solving for Uy, Initial residual = 0.00282742466, Final residual = 6.34480499e-05, No Iterations 1
DILUPBiCG:  Solving for Uz, Initial residual = 0.00287947039, Final residual = 6.25261913e-07, No Iterations 2
DILUPBiCG:  Solving for h, Initial residual = 0.0015741975, Final residual = 1.83221429e-05, No Iterations 1
GAMG:  Solving for p_rgh, Initial residual = 0.0272131977, Final residual = 0.000166443023, No Iterations 3
time step continuity errors : sum local = 4.69435931e-05, global = -2.186945e-05, cumulative = 0.000554361041
rho max/min : 1.2036138 1.1472925
smoothSolver:  Solving for epsilon, Initial residual = 0.0669223632, Final residual = 0.00323218629, No Iterations 3
smoothSolver:  Solving for k, Initial residual = 0.0526540282, Final residual = 0.00251787127, No Iterations 4
GAMG:  Solving for f, Initial residual = 0.241954879, Final residual = 0.00106253158, No Iterations 1
smoothSolver:  Solving for v2, Initial residual = 0.08850397, Final residual = 0.0081542634, No Iterations 3
ExecutionTime = 182.52 s  ClockTime = 183 s

wallHeatFlux wallHeatFlux output:

Wall heat fluxes [W]
room_SIDE2
    convective: 0
    radiative:  -0
    total:      0
    Temperature : min = 292.823844, max = 293.93318, average = 293.57362
room_FLOOR
    convective: 0
    radiative:  -0
    total:      0
    Temperature : min = 292.823844, max = 306.676575, average = 293.664825
room_CEILING
    convective: 0
    radiative:  -0
    total:      0
    Temperature : min = 293.93236, max = 293.932534, average = 293.932416
room_BACK
    convective: 0
    radiative:  -0
    total:      0
    Temperature : min = 292.82817, max = 293.932563, average = 293.602175
room_SIDE1
    convective: 0
    radiative:  -0
    total:      0
    Temperature : min = 292.823844, max = 293.933181, average = 293.571566
manikin
    convective: 20969.4313
    radiative:  -0
    total:      20969.4313
    Temperature : min = 307.15, max = 307.15, average = 307.15

yPlusRAS yplusRAS output:
    no mutWallFunction patches

yPlusRASLowRe yplusRASLowRe output:
room_SIDE2
    y+ : min = 0.208313109, max = 6.40873521, average = 3.12727214
    y : min = 0.000544684214, max = 0.00250000001, average = 0.00234603179
room_FLOOR
    y+ : min = 0.0837702484, max = 6.410762, average = 2.42719387
    y : min = 0.000139430812, max = 0.00249999971, average = 0.00161917022
room_CEILING
    y+ : min = 0.212623434, max = 6.38940085, average = 3.01503369
    y : min = 0.000647142072, max = 0.00249999973, average = 0.00231379284
room_BACK
    y+ : min = 0.210271234, max = 41.8607037, average = 3.18895306
    y : min = 0.000872666798, max = 0.00549005797, average = 0.00123342378
room_SIDE1
    y+ : min = 0.182357744, max = 6.40830962, average = 3.13786991
    y : min = 0.000544684643, max = 0.0025, average = 0.00234602486
manikin
    y+ : min = 0.03740873, max = 6.94863205, average = 0.920226689
    y : min = 4.97449872e-05, max = 0.00255854003, average = 0.000292020944

forceCoeffs forceCoeffs1 output:
    Cm    = -4493.10209
    Cd    = -98.3699127
    Cl    = -8651.30116
    Cl(f) = -8818.75266
    Cl(r) = 167.451507

Time = 6014

DILUPBiCG:  Solving for Ux, Initial residual = 0.00272110677, Final residual = 5.82758075e-07, No Iterations 2
DILUPBiCG:  Solving for Uy, Initial residual = 0.0026034571, Final residual = 4.14380509e-05, No Iterations 1
DILUPBiCG:  Solving for Uz, Initial residual = 0.00277221856, Final residual = 5.54034635e-07, No Iterations 2
DILUPBiCG:  Solving for h, Initial residual = 0.00153939555, Final residual = 1.80297542e-05, No Iterations 1
GAMG:  Solving for p_rgh, Initial residual = 0.0243881577, Final residual = 0.000153903258, No Iterations 3
time step continuity errors : sum local = 4.33481314e-05, global = -1.67733425e-05, cumulative = 0.000537587698
rho max/min : 1.20364351 1.14732082
smoothSolver:  Solving for epsilon, Initial residual = 0.0610568397, Final residual = 0.00346201189, No Iterations 3
smoothSolver:  Solving for k, Initial residual = 0.04816853, Final residual = 0.00243331933, No Iterations 4
GAMG:  Solving for f, Initial residual = 0.269838203, Final residual = 0.00125344974, No Iterations 1
smoothSolver:  Solving for v2, Initial residual = 0.0855693641, Final residual = 0.00792603364, No Iterations 3
ExecutionTime = 196.32 s  ClockTime = 197 s

wallHeatFlux wallHeatFlux output:

Wall heat fluxes [W]
room_SIDE2
    convective: 0
    radiative:  -0
    total:      0
    Temperature : min = 292.823844, max = 293.933176, average = 293.573528
room_FLOOR
    convective: 0
    radiative:  -0
    total:      0
    Temperature : min = 292.823844, max = 306.68521, average = 293.678617
room_CEILING
    convective: 0
    radiative:  -0
    total:      0
    Temperature : min = 293.93236, max = 293.932534, average = 293.932416
room_BACK
    convective: 0
    radiative:  -0
    total:      0
    Temperature : min = 292.828326, max = 293.932563, average = 293.60212
room_SIDE1
    convective: 0
    radiative:  -0
    total:      0
    Temperature : min = 292.823844, max = 293.933176, average = 293.571505
manikin
    convective: 20709.3686
    radiative:  -0
    total:      20709.3686
    Temperature : min = 307.15, max = 307.15, average = 307.15

yPlusRAS yplusRAS output:
    no mutWallFunction patches

yPlusRASLowRe yplusRASLowRe output:
room_SIDE2
    y+ : min = 0.237167683, max = 6.36495773, average = 3.12267494
    y : min = 0.000544684214, max = 0.00250000001, average = 0.00234603179
room_FLOOR
    y+ : min = 0.0663809327, max = 6.36669409, average = 2.42492889
    y : min = 0.000139430812, max = 0.00249999971, average = 0.00161917022
room_CEILING
    y+ : min = 0.327040253, max = 6.34883893, average = 3.01253777
    y : min = 0.000647142072, max = 0.00249999973, average = 0.00231379284
room_BACK
    y+ : min = 0.236369932, max = 42.4104639, average = 3.18814828
    y : min = 0.000872666798, max = 0.00549005797, average = 0.00123342378
room_SIDE1
    y+ : min = 0.17106783, max = 6.36462846, average = 3.13307053
    y : min = 0.000544684643, max = 0.0025, average = 0.00234602486
manikin
    y+ : min = 0.0402088535, max = 6.94328783, average = 0.918139852
    y : min = 4.97449872e-05, max = 0.00255854003, average = 0.000292020944

forceCoeffs forceCoeffs1 output:
    Cm    = -4493.17202
    Cd    = -98.3821387
    Cl    = -8651.43495
    Cl(f) = -8818.8895
    Cl(r) = 167.454543

Time = 6015

DILUPBiCG:  Solving for Ux, Initial residual = 0.00260670986, Final residual = 4.97604356e-07, No Iterations 2
DILUPBiCG:  Solving for Uy, Initial residual = 0.00243005221, Final residual = 3.30548628e-05, No Iterations 1
DILUPBiCG:  Solving for Uz, Initial residual = 0.00267130583, Final residual = 4.91637354e-07, No Iterations 2
DILUPBiCG:  Solving for h, Initial residual = 0.00150667824, Final residual = 1.77513203e-05, No Iterations 1
GAMG:  Solving for p_rgh, Initial residual = 0.0229402308, Final residual = 8.95972444e-05, No Iterations 3
time step continuity errors : sum local = 2.49784797e-05, global = -1.02273243e-05, cumulative = 0.000527360374
rho max/min : 1.20366273 1.14733914
smoothSolver:  Solving for epsilon, Initial residual = 0.0587859965, Final residual = 0.00389818125, No Iterations 3
smoothSolver:  Solving for k, Initial residual = 0.0446792343, Final residual = 0.00233164654, No Iterations 4
GAMG:  Solving for f, Initial residual = 0.275046155, Final residual = 0.0012648917, No Iterations 1
smoothSolver:  Solving for v2, Initial residual = 0.0826085679, Final residual = 0.00761474768, No Iterations 3
ExecutionTime = 210.1 s  ClockTime = 210 s

wallHeatFlux wallHeatFlux output:

Wall heat fluxes [W]
room_SIDE2
    convective: 0
    radiative:  -0
    total:      0
    Temperature : min = 292.823844, max = 293.933171, average = 293.57344
room_FLOOR
    convective: 0
    radiative:  -0
    total:      0
    Temperature : min = 292.823844, max = 306.693683, average = 293.692106
room_CEILING
    convective: 0
    radiative:  -0
    total:      0
    Temperature : min = 293.93236, max = 293.932534, average = 293.932417
room_BACK
    convective: 0
    radiative:  -0
    total:      0
    Temperature : min = 292.828471, max = 293.932562, average = 293.602068
room_SIDE1
    convective: 0
    radiative:  -0
    total:      0
    Temperature : min = 292.823844, max = 293.933171, average = 293.571446
manikin
    convective: 20458.833
    radiative:  -0
    total:      20458.833
    Temperature : min = 307.15, max = 307.15, average = 307.15

yPlusRAS yplusRAS output:
    no mutWallFunction patches

yPlusRASLowRe yplusRASLowRe output:
room_SIDE2
    y+ : min = 0.245868132, max = 6.3123669, average = 3.11569885
    y : min = 0.000544684214, max = 0.00250000001, average = 0.00234603179
room_FLOOR
    y+ : min = 0.0844949089, max = 6.31409446, average = 2.42077888
    y : min = 0.000139430812, max = 0.00249999971, average = 0.00161917022
room_CEILING
    y+ : min = 0.343835503, max = 6.32047084, average = 3.00734106
    y : min = 0.000647142072, max = 0.00249999973, average = 0.00231379284
room_BACK
    y+ : min = 0.227234385, max = 43.0039072, average = 3.19203498
    y : min = 0.000872666798, max = 0.00549005797, average = 0.00123342378
room_SIDE1
    y+ : min = 0.159344557, max = 6.31214968, average = 3.12583207
    y : min = 0.000544684643, max = 0.0025, average = 0.00234602486
manikin
    y+ : min = 0.0344259064, max = 6.93521027, average = 0.915673306
    y : min = 4.97449872e-05, max = 0.00255854003, average = 0.000292020944

forceCoeffs forceCoeffs1 output:
    Cm    = -4493.19927
    Cd    = -98.3913094
    Cl    = -8651.48688
    Cl(f) = -8818.94271
    Cl(r) = 167.455831

Time = 6016

DILUPBiCG:  Solving for Ux, Initial residual = 0.00249990706, Final residual = 0.000164620837, No Iterations 1
DILUPBiCG:  Solving for Uy, Initial residual = 0.00227297708, Final residual = 2.89389873e-05, No Iterations 1
DILUPBiCG:  Solving for Uz, Initial residual = 0.00257217493, Final residual = 0.000128614027, No Iterations 1
DILUPBiCG:  Solving for h, Initial residual = 0.00147581031, Final residual = 1.74848147e-05, No Iterations 1
GAMG:  Solving for p_rgh, Initial residual = 0.0217376187, Final residual = 7.98696389e-05, No Iterations 3
time step continuity errors : sum local = 2.18784302e-05, global = -8.15980638e-06, cumulative = 0.000519200568
rho max/min : 1.20367029 1.14734635
smoothSolver:  Solving for epsilon, Initial residual = 0.0558068642, Final residual = 0.00431853621, No Iterations 3
smoothSolver:  Solving for k, Initial residual = 0.0416559234, Final residual = 0.00219986281, No Iterations 4
GAMG:  Solving for f, Initial residual = 0.240670701, Final residual = 0.000983710743, No Iterations 1
smoothSolver:  Solving for v2, Initial residual = 0.0788221152, Final residual = 0.0073047718, No Iterations 3
ExecutionTime = 223.64 s  ClockTime = 224 s

wallHeatFlux wallHeatFlux output:

Wall heat fluxes [W]
room_SIDE2
    convective: 0
    radiative:  -0
    total:      0
    Temperature : min = 292.823844, max = 293.933166, average = 293.573356
room_FLOOR
    convective: 0
    radiative:  -0
    total:      0
    Temperature : min = 292.823844, max = 306.701995, average = 293.705308
room_CEILING
    convective: 0
    radiative:  -0
    total:      0
    Temperature : min = 293.93236, max = 293.932534, average = 293.932417
room_BACK
    convective: 0
    radiative:  -0
    total:      0
    Temperature : min = 292.828609, max = 293.932562, average = 293.602019
room_SIDE1
    convective: 0
    radiative:  -0
    total:      0
    Temperature : min = 292.823844, max = 293.933166, average = 293.57139
manikin
    convective: 20216.8683
    radiative:  -0
    total:      20216.8683
    Temperature : min = 307.15, max = 307.15, average = 307.15

yPlusRAS yplusRAS output:
    no mutWallFunction patches

yPlusRASLowRe yplusRASLowRe output:
room_SIDE2
    y+ : min = 0.232459156, max = 6.27087765, average = 3.10717038
    y : min = 0.000544684214, max = 0.00250000001, average = 0.00234603179
room_FLOOR
    y+ : min = 0.0847874064, max = 6.27278111, average = 2.41529425
    y : min = 0.000139430812, max = 0.00249999971, average = 0.00161917022
room_CEILING
    y+ : min = 0.339120546, max = 6.30323622, average = 3.00021631
    y : min = 0.000647142072, max = 0.00249999973, average = 0.00231379284
room_BACK
    y+ : min = 0.224897593, max = 43.5937634, average = 3.19906814
    y : min = 0.000872666798, max = 0.00549005797, average = 0.00123342378
room_SIDE1
    y+ : min = 0.147556081, max = 6.27075805, average = 3.11701664
    y : min = 0.000544684643, max = 0.0025, average = 0.00234602486
manikin
    y+ : min = 0.0457361607, max = 6.92557493, average = 0.912977267
    y : min = 4.97449872e-05, max = 0.00255854003, average = 0.000292020944

forceCoeffs forceCoeffs1 output:
    Cm    = -4493.22135
    Cd    = -98.4016118
    Cl    = -8651.5289
    Cl(f) = -8818.9858
    Cl(r) = 167.456899

Time = 6017

DILUPBiCG:  Solving for Ux, Initial residual = 0.00239608729, Final residual = 9.36451441e-05, No Iterations 1
DILUPBiCG:  Solving for Uy, Initial residual = 0.00213645981, Final residual = 2.62768881e-05, No Iterations 1
DILUPBiCG:  Solving for Uz, Initial residual = 0.00247895387, Final residual = 6.96308481e-05, No Iterations 1
DILUPBiCG:  Solving for h, Initial residual = 0.00144662297, Final residual = 1.72277997e-05, No Iterations 1
GAMG:  Solving for p_rgh, Initial residual = 0.020356875, Final residual = 9.6856988e-05, No Iterations 3
time step continuity errors : sum local = 2.59917842e-05, global = -1.02727419e-05, cumulative = 0.000508927826
rho max/min : 1.20367636 1.14735214
smoothSolver:  Solving for epsilon, Initial residual = 0.0558170506, Final residual = 0.00475046266, No Iterations 3
smoothSolver:  Solving for k, Initial residual = 0.0390799661, Final residual = 0.00205361548, No Iterations 4
GAMG:  Solving for f, Initial residual = 0.224847649, Final residual = 0.000894705715, No Iterations 1
smoothSolver:  Solving for v2, Initial residual = 0.0751373755, Final residual = 0.00701735497, No Iterations 3
bounding v2, min: 4.56694042e-16 max: 64.8244281 average: 0.0315631876
ExecutionTime = 237.37 s  ClockTime = 238 s

wallHeatFlux wallHeatFlux output:

Wall heat fluxes [W]
room_SIDE2
    convective: 0
    radiative:  -0
    total:      0
    Temperature : min = 292.823844, max = 293.933162, average = 293.573275
room_FLOOR
    convective: 0
    radiative:  -0
    total:      0
    Temperature : min = 292.823844, max = 306.710146, average = 293.718238
room_CEILING
    convective: 0
    radiative:  -0
    total:      0
    Temperature : min = 293.93236, max = 293.932534, average = 293.932417
room_BACK
    convective: 0
    radiative:  -0
    total:      0
    Temperature : min = 292.828654, max = 293.932562, average = 293.601973
room_SIDE1
    convective: 0
    radiative:  -0
    total:      0
    Temperature : min = 292.823844, max = 293.933162, average = 293.571336
manikin
    convective: 19982.6998
    radiative:  -0
    total:      19982.6998
    Temperature : min = 307.15, max = 307.15, average = 307.15

yPlusRAS yplusRAS output:
    no mutWallFunction patches

yPlusRASLowRe yplusRASLowRe output:
room_SIDE2
    y+ : min = 0.218626085, max = 6.25011373, average = 3.09766464
    y : min = 0.000544684214, max = 0.00250000001, average = 0.00234603179
room_FLOOR
    y+ : min = 0.0846817111, max = 6.25223467, average = 2.40892003
    y : min = 0.000139430812, max = 0.00249999971, average = 0.00161917022
room_CEILING
    y+ : min = 0.346486372, max = 6.2919381, average = 2.99184882
    y : min = 0.000647142072, max = 0.00249999973, average = 0.00231379284
room_BACK
    y+ : min = 0.212896515, max = 44.1390472, average = 3.20682264
    y : min = 0.000872666798, max = 0.00549005797, average = 0.00123342378
room_SIDE1
    y+ : min = 0.136347036, max = 6.24998627, average = 3.10722527
    y : min = 0.000544684643, max = 0.0025, average = 0.00234602486
manikin
    y+ : min = 0.0486621649, max = 6.91505819, average = 0.910152374
    y : min = 4.97449872e-05, max = 0.00255854003, average = 0.000292020944

forceCoeffs forceCoeffs1 output:
    Cm    = -4493.25896
    Cd    = -98.4142563
    Cl    = -8651.60095
    Cl(f) = -8819.05944
    Cl(r) = 167.458489

Time = 6018

DILUPBiCG:  Solving for Ux, Initial residual = 0.00231263234, Final residual = 6.73879679e-05, No Iterations 1
DILUPBiCG:  Solving for Uy, Initial residual = 0.00200209061, Final residual = 2.43553395e-05, No Iterations 1
DILUPBiCG:  Solving for Uz, Initial residual = 0.00240340457, Final residual = 4.7868501e-05, No Iterations 1
DILUPBiCG:  Solving for h, Initial residual = 0.00141894367, Final residual = 1.69794338e-05, No Iterations 1
GAMG:  Solving for p_rgh, Initial residual = 0.0191007894, Final residual = 9.26322708e-05, No Iterations 3
time step continuity errors : sum local = 2.43450785e-05, global = -1.10176857e-05, cumulative = 0.00049791014
rho max/min : 1.20368665 1.14736195
smoothSolver:  Solving for epsilon, Initial residual = 0.0574890934, Final residual = 0.00522508431, No Iterations 3
smoothSolver:  Solving for k, Initial residual = 0.0365158782, Final residual = 0.00190314892, No Iterations 4
GAMG:  Solving for f, Initial residual = 0.211195385, Final residual = 0.00081468493, No Iterations 1
smoothSolver:  Solving for v2, Initial residual = 0.071193821, Final residual = 0.00671052747, No Iterations 3
bounding v2, min: 1.41566007e-17 max: 65.0147795 average: 0.0331114755
ExecutionTime = 251.85 s  ClockTime = 252 s

wallHeatFlux wallHeatFlux output:

Wall heat fluxes [W]
room_SIDE2
    convective: 0
    radiative:  -0
    total:      0
    Temperature : min = 292.823844, max = 293.933157, average = 293.573198
room_FLOOR
    convective: 0
    radiative:  -0
    total:      0
    Temperature : min = 292.823844, max = 306.718135, average = 293.73091
room_CEILING
    convective: 0
    radiative:  -0
    total:      0
    Temperature : min = 293.93236, max = 293.932534, average = 293.932417
room_BACK
    convective: 0
    radiative:  -0
    total:      0
    Temperature : min = 292.828506, max = 293.932562, average = 293.601929
room_SIDE1
    convective: 0
    radiative:  -0
    total:      0
    Temperature : min = 292.823844, max = 293.933157, average = 293.571283
manikin
    convective: 19755.6882
    radiative:  -0
    total:      19755.6882
    Temperature : min = 307.15, max = 307.15, average = 307.15

yPlusRAS yplusRAS output:
    no mutWallFunction patches

yPlusRASLowRe yplusRASLowRe output:
room_SIDE2
    y+ : min = 0.20715138, max = 6.24917873, average = 3.0876213
    y : min = 0.000544684214, max = 0.00250000001, average = 0.00234603179
room_FLOOR
    y+ : min = 0.0797208676, max = 6.25139718, average = 2.40195486
    y : min = 0.000139430812, max = 0.00249999971, average = 0.00161917022
room_CEILING
    y+ : min = 0.334919786, max = 6.28687513, average = 2.98270322
    y : min = 0.000647142072, max = 0.00249999973, average = 0.00231379284
room_BACK
    y+ : min = 0.206035384, max = 44.6229243, average = 3.21285941
    y : min = 0.000872666798, max = 0.00549005797, average = 0.00123342378
room_SIDE1
    y+ : min = 0.124915154, max = 6.24885754, average = 3.09690902
    y : min = 0.000544684643, max = 0.0025, average = 0.00234602486
manikin
    y+ : min = 0.0487815321, max = 6.90390841, average = 0.907297292
    y : min = 4.97449872e-05, max = 0.00255854003, average = 0.000292020944

forceCoeffs forceCoeffs1 output:
    Cm    = -4493.30976
    Cd    = -98.4233328
    Cl    = -8651.69849
    Cl(f) = -8819.159
    Cl(r) = 167.460511

Time = 6019

DILUPBiCG:  Solving for Ux, Initial residual = 0.00224638988, Final residual = 6.26999006e-05, No Iterations 1
DILUPBiCG:  Solving for Uy, Initial residual = 0.0018814115, Final residual = 2.29547353e-05, No Iterations 1
DILUPBiCG:  Solving for Uz, Initial residual = 0.00233961437, Final residual = 4.0608133e-05, No Iterations 1
DILUPBiCG:  Solving for h, Initial residual = 0.00139263402, Final residual = 1.67393745e-05, No Iterations 1
GAMG:  Solving for p_rgh, Initial residual = 0.0180076852, Final residual = 7.65871617e-05, No Iterations 3
time step continuity errors : sum local = 1.97157342e-05, global = -9.52641204e-06, cumulative = 0.000488383728
rho max/min : 1.20370041 1.14737509
smoothSolver:  Solving for epsilon, Initial residual = 0.058738137, Final residual = 0.00552733172, No Iterations 3
smoothSolver:  Solving for k, Initial residual = 0.0337904096, Final residual = 0.00175023125, No Iterations 4
GAMG:  Solving for f, Initial residual = 0.20104978, Final residual = 0.000755127156, No Iterations 1
smoothSolver:  Solving for v2, Initial residual = 0.0672046996, Final residual = 0.00637752773, No Iterations 3
bounding v2, min: 4.02793239e-19 max: 65.3473551 average: 0.0347873609
ExecutionTime = 266.18 s  ClockTime = 267 s

wallHeatFlux wallHeatFlux output:

Wall heat fluxes [W]
room_SIDE2
    convective: 0
    radiative:  -0
    total:      0
    Temperature : min = 292.823844, max = 293.933153, average = 293.573124
room_FLOOR
    convective: 0
    radiative:  -0
    total:      0
    Temperature : min = 292.823844, max = 306.725957, average = 293.743338
room_CEILING
    convective: 0
    radiative:  -0
    total:      0
    Temperature : min = 293.93236, max = 293.932534, average = 293.932418
room_BACK
    convective: 0
    radiative:  -0
    total:      0
    Temperature : min = 292.828279, max = 293.932562, average = 293.601887
room_SIDE1
    convective: 0
    radiative:  -0
    total:      0
    Temperature : min = 292.823844, max = 293.933153, average = 293.571232
manikin
    convective: 19535.2972
    radiative:  -0
    total:      19535.2972
    Temperature : min = 307.15, max = 307.15, average = 307.15

yPlusRAS yplusRAS output:
    no mutWallFunction patches

yPlusRASLowRe yplusRASLowRe output:
room_SIDE2
    y+ : min = 0.200383525, max = 6.25982017, average = 3.07728503
    y : min = 0.000544684214, max = 0.00250000001, average = 0.00234603179
room_FLOOR
    y+ : min = 0.0752487002, max = 6.26206974, average = 2.39472332
    y : min = 0.000139430812, max = 0.00249999971, average = 0.00161917022
room_CEILING
    y+ : min = 0.329075184, max = 6.28685606, average = 2.9730712
    y : min = 0.000647142072, max = 0.00249999973, average = 0.00231379284
room_BACK
    y+ : min = 0.203039184, max = 45.041548, average = 3.21638049
    y : min = 0.000872666798, max = 0.00549005797, average = 0.00123342378
room_SIDE1
    y+ : min = 0.112138589, max = 6.25935932, average = 3.08629275
    y : min = 0.000544684643, max = 0.0025, average = 0.00234602486
manikin
    y+ : min = 0.0414386593, max = 6.89237728, average = 0.904494575
    y : min = 4.97449872e-05, max = 0.00255854003, average = 0.000292020944

forceCoeffs forceCoeffs1 output:
    Cm    = -4493.35675
    Cd    = -98.4295128
    Cl    = -8651.78879
    Cl(f) = -8819.25114
    Cl(r) = 167.462359

Time = 6020

DILUPBiCG:  Solving for Ux, Initial residual = 0.00219304632, Final residual = 7.86983553e-05, No Iterations 1
DILUPBiCG:  Solving for Uy, Initial residual = 0.00178164065, Final residual = 2.18373986e-05, No Iterations 1
DILUPBiCG:  Solving for Uz, Initial residual = 0.00228873817, Final residual = 4.06712804e-05, No Iterations 1
DILUPBiCG:  Solving for h, Initial residual = 0.00136758018, Final residual = 1.65080118e-05, No Iterations 1
GAMG:  Solving for p_rgh, Initial residual = 0.0170471905, Final residual = 6.59514876e-05, No Iterations 3
time step continuity errors : sum local = 1.66216395e-05, global = -6.70515145e-06, cumulative = 0.000481678577
rho max/min : 1.2037132 1.14738728
smoothSolver:  Solving for epsilon, Initial residual = 0.0588741236, Final residual = 0.00565208173, No Iterations 3
smoothSolver:  Solving for k, Initial residual = 0.0309859777, Final residual = 0.00159722516, No Iterations 4
GAMG:  Solving for f, Initial residual = 0.190803881, Final residual = 0.000734760895, No Iterations 1
smoothSolver:  Solving for v2, Initial residual = 0.0628131611, Final residual = 0.00600275966, No Iterations 3
bounding v2, min: 1.10830147e-20 max: 65.1138832 average: 0.0365518246
ExecutionTime = 279.69 s  ClockTime = 280 s

wallHeatFlux wallHeatFlux output:

Wall heat fluxes [W]
room_SIDE2
    convective: 0
    radiative:  -0
    total:      0
    Temperature : min = 292.823844, max = 293.933149, average = 293.573052
room_FLOOR
    convective: 0
    radiative:  -0
    total:      0
    Temperature : min = 292.823844, max = 306.733612, average = 293.755535
room_CEILING
    convective: 0
    radiative:  -0
    total:      0
    Temperature : min = 293.93236, max = 293.932534, average = 293.932418
room_BACK
    convective: 0
    radiative:  -0
    total:      0
    Temperature : min = 292.828018, max = 293.932562, average = 293.601849
room_SIDE1
    convective: 0
    radiative:  -0
    total:      0
    Temperature : min = 292.823844, max = 293.933149, average = 293.571183
manikin
    convective: 19321.0699
    radiative:  -0
    total:      19321.0699
    Temperature : min = 307.15, max = 307.15, average = 307.15

yPlusRAS yplusRAS output:
    no mutWallFunction patches

yPlusRASLowRe yplusRASLowRe output:
room_SIDE2
    y+ : min = 0.199159017, max = 6.27391359, average = 3.06677224
    y : min = 0.000544684214, max = 0.00250000001, average = 0.00234603179
room_FLOOR
    y+ : min = 0.0694579686, max = 6.27614113, average = 2.3872887
    y : min = 0.000139430812, max = 0.00249999971, average = 0.00161917022
room_CEILING
    y+ : min = 0.32347937, max = 6.28976382, average = 2.96306413
    y : min = 0.000647142072, max = 0.00249999973, average = 0.00231379284
room_BACK
    y+ : min = 0.201978584, max = 45.3897602, average = 3.21709394
    y : min = 0.000872666798, max = 0.00549005797, average = 0.00123342378
room_SIDE1
    y+ : min = 0.0976729855, max = 6.27342343, average = 3.07544274
    y : min = 0.000544684643, max = 0.0025, average = 0.00234602486
manikin
    y+ : min = 0.0357045716, max = 6.88054993, average = 0.901788173
    y : min = 4.97449872e-05, max = 0.00255854003, average = 0.000292020944

forceCoeffs forceCoeffs1 output:
    Cm    = -4493.38962
    Cd    = -98.4350634
    Cl    = -8651.85198
    Cl(f) = -8819.31561
    Cl(r) = 167.463626

Time = 6021

DILUPBiCG:  Solving for Ux, Initial residual = 0.00215291447, Final residual = 0.000150824761, No Iterations 1
DILUPBiCG:  Solving for Uy, Initial residual = 0.00170100539, Final residual = 2.08386982e-05, No Iterations 1
DILUPBiCG:  Solving for Uz, Initial residual = 0.00225151949, Final residual = 4.96050534e-05, No Iterations 1
DILUPBiCG:  Solving for h, Initial residual = 0.00134367553, Final residual = 1.62857921e-05, No Iterations 1
GAMG:  Solving for p_rgh, Initial residual = 0.0161643054, Final residual = 8.45520279e-05, No Iterations 3
time step continuity errors : sum local = 2.08554779e-05, global = -3.61394186e-06, cumulative = 0.000478064635
rho max/min : 1.20372228 1.14739593
smoothSolver:  Solving for epsilon, Initial residual = 0.0587186535, Final residual = 0.00563359905, No Iterations 3
smoothSolver:  Solving for k, Initial residual = 0.0281742147, Final residual = 0.00144622277, No Iterations 4
GAMG:  Solving for f, Initial residual = 0.173337959, Final residual = 0.000647332822, No Iterations 1
smoothSolver:  Solving for v2, Initial residual = 0.0581424841, Final residual = 0.0055997388, No Iterations 3
bounding v2, min: -1.56980665e-07 max: 65.1700196 average: 0.0383475132
ExecutionTime = 292.43 s  ClockTime = 293 s

wallHeatFlux wallHeatFlux output:

Wall heat fluxes [W]
room_SIDE2
    convective: 0
    radiative:  -0
    total:      0
    Temperature : min = 292.823844, max = 293.933145, average = 293.572983
room_FLOOR
    convective: 0
    radiative:  -0
    total:      0
    Temperature : min = 292.823844, max = 306.741096, average = 293.767514
room_CEILING
    convective: 0
    radiative:  -0
    total:      0
    Temperature : min = 293.932361, max = 293.932534, average = 293.932418
room_BACK
    convective: 0
    radiative:  -0
    total:      0
    Temperature : min = 292.827756, max = 293.932562, average = 293.601813
room_SIDE1
    convective: 0
    radiative:  -0
    total:      0
    Temperature : min = 292.823844, max = 293.933145, average = 293.571134
manikin
    convective: 19112.612
    radiative:  -0
    total:      19112.612
    Temperature : min = 307.15, max = 307.15, average = 307.15

yPlusRAS yplusRAS output:
    no mutWallFunction patches

yPlusRASLowRe yplusRASLowRe output:
room_SIDE2
    y+ : min = 0.202334378, max = 6.28568601, average = 3.0561451
    y : min = 0.000544684214, max = 0.00250000001, average = 0.00234603179
room_FLOOR
    y+ : min = 0.0731632365, max = 6.28788274, average = 2.37971884
    y : min = 0.000139430812, max = 0.00249999971, average = 0.00161917022
room_CEILING
    y+ : min = 0.319739742, max = 6.29364056, average = 2.95277573
    y : min = 0.000647142072, max = 0.00249999973, average = 0.00231379284
room_BACK
    y+ : min = 0.20180491, max = 45.6716952, average = 3.21506829
    y : min = 0.000872666798, max = 0.00549005797, average = 0.00123342378
room_SIDE1
    y+ : min = 0.0839877853, max = 6.28521039, average = 3.06442492
    y : min = 0.000544684643, max = 0.0025, average = 0.00234602486
manikin
    y+ : min = 0.0441709116, max = 6.86852253, average = 0.899218629
    y : min = 4.97449872e-05, max = 0.00255854003, average = 0.000292020944

forceCoeffs forceCoeffs1 output:
    Cm    = -4493.40934
    Cd    = -98.4390624
    Cl    = -8651.88995
    Cl(f) = -8819.35431
    Cl(r) = 167.464363

Time = 6022

DILUPBiCG:  Solving for Ux, Initial residual = 0.00212154428, Final residual = 2.96464368e-07, No Iterations 2
DILUPBiCG:  Solving for Uy, Initial residual = 0.00163367053, Final residual = 1.99231662e-05, No Iterations 1
DILUPBiCG:  Solving for Uz, Initial residual = 0.00222415235, Final residual = 9.70807672e-05, No Iterations 1
DILUPBiCG:  Solving for h, Initial residual = 0.00132081628, Final residual = 1.6073514e-05, No Iterations 1
GAMG:  Solving for p_rgh, Initial residual = 0.0154063926, Final residual = 8.80153675e-05, No Iterations 3
time step continuity errors : sum local = 2.12627007e-05, global = 3.42145916e-06, cumulative = 0.000481486094
rho max/min : 1.20372775 1.14740115
smoothSolver:  Solving for epsilon, Initial residual = 0.0571497585, Final residual = 0.005472267, No Iterations 3
smoothSolver:  Solving for k, Initial residual = 0.0254800673, Final residual = 0.00130038177, No Iterations 4
GAMG:  Solving for f, Initial residual = 0.162882029, Final residual = 0.000625161742, No Iterations 1
smoothSolver:  Solving for v2, Initial residual = 0.0535902016, Final residual = 0.00519334739, No Iterations 3
bounding v2, min: 8.15227395e-24 max: 65.2789918 average: 0.04022353
ExecutionTime = 305.27 s  ClockTime = 306 s

wallHeatFlux wallHeatFlux output:

Wall heat fluxes [W]
room_SIDE2
    convective: 0
    radiative:  -0
    total:      0
    Temperature : min = 292.823844, max = 293.933141, average = 293.572917
room_FLOOR
    convective: 0
    radiative:  -0
    total:      0
    Temperature : min = 292.823844, max = 306.748407, average = 293.779285
room_CEILING
    convective: 0
    radiative:  -0
    total:      0
    Temperature : min = 293.932361, max = 293.932534, average = 293.932418
room_BACK
    convective: 0
    radiative:  -0
    total:      0
    Temperature : min = 292.827527, max = 293.932562, average = 293.60178
room_SIDE1
    convective: 0
    radiative:  -0
    total:      0
    Temperature : min = 292.823844, max = 293.933141, average = 293.571088
manikin
    convective: 18909.578
    radiative:  -0
    total:      18909.578
    Temperature : min = 307.15, max = 307.15, average = 307.15

yPlusRAS yplusRAS output:
    no mutWallFunction patches

yPlusRASLowRe yplusRASLowRe output:
room_SIDE2
    y+ : min = 0.209314271, max = 6.29219682, average = 3.04539024
    y : min = 0.000544684214, max = 0.00250000001, average = 0.00234603179
room_FLOOR
    y+ : min = 0.0771030149, max = 6.29435982, average = 2.37202795
    y : min = 0.000139430812, max = 0.00249999971, average = 0.00161917022
room_CEILING
    y+ : min = 0.303418168, max = 6.29707355, average = 2.94226927
    y : min = 0.000647142072, max = 0.00249999973, average = 0.00231379284
room_BACK
    y+ : min = 0.202765168, max = 45.8982192, average = 3.21110397
    y : min = 0.000872666798, max = 0.00549005797, average = 0.00123342378
room_SIDE1
    y+ : min = 0.0805499309, max = 6.29176238, average = 3.05325968
    y : min = 0.000544684643, max = 0.0025, average = 0.00234602486
manikin
    y+ : min = 0.0545036239, max = 6.85615114, average = 0.896787741
    y : min = 4.97449872e-05, max = 0.00255854003, average = 0.000292020944

forceCoeffs forceCoeffs1 output:
    Cm    = -4493.4178
    Cd    = -98.4485394
    Cl    = -8651.90632
    Cl(f) = -8819.37096
    Cl(r) = 167.464638

Time = 6023

DILUPBiCG:  Solving for Ux, Initial residual = 0.00210017352, Final residual = 0.000154447453, No Iterations 1
DILUPBiCG:  Solving for Uy, Initial residual = 0.0015670456, Final residual = 1.90042204e-05, No Iterations 1
DILUPBiCG:  Solving for Uz, Initial residual = 0.002197887, Final residual = 2.87857804e-07, No Iterations 2
DILUPBiCG:  Solving for h, Initial residual = 0.00129891371, Final residual = 1.58709612e-05, No Iterations 1
GAMG:  Solving for p_rgh, Initial residual = 0.0147381007, Final residual = 6.53887947e-05, No Iterations 3
time step continuity errors : sum local = 1.5496623e-05, global = 5.18196254e-06, cumulative = 0.000486668056
rho max/min : 1.20373056 1.14740382
smoothSolver:  Solving for epsilon, Initial residual = 0.0540406528, Final residual = 0.00517917922, No Iterations 3
smoothSolver:  Solving for k, Initial residual = 0.0230070107, Final residual = 0.00116296535, No Iterations 4
GAMG:  Solving for f, Initial residual = 0.154141498, Final residual = 0.000605210121, No Iterations 1
smoothSolver:  Solving for v2, Initial residual = 0.0491769873, Final residual = 0.00477800202, No Iterations 3
bounding v2, min: 2.20276839e-25 max: 65.0196413 average: 0.0420741603
ExecutionTime = 318.09 s  ClockTime = 319 s

wallHeatFlux wallHeatFlux output:

Wall heat fluxes [W]
room_SIDE2
    convective: 0
    radiative:  -0
    total:      0
    Temperature : min = 292.823844, max = 293.933138, average = 293.572852
room_FLOOR
    convective: 0
    radiative:  -0
    total:      0
    Temperature : min = 292.823844, max = 306.755542, average = 293.79086
room_CEILING
    convective: 0
    radiative:  -0
    total:      0
    Temperature : min = 293.932361, max = 293.932534, average = 293.932419
room_BACK
    convective: 0
    radiative:  -0
    total:      0
    Temperature : min = 292.827348, max = 293.932562, average = 293.60175
room_SIDE1
    convective: 0
    radiative:  -0
    total:      0
    Temperature : min = 292.823844, max = 293.933138, average = 293.571042
manikin
    convective: 18711.663
    radiative:  -0
    total:      18711.663
    Temperature : min = 307.15, max = 307.15, average = 307.15

yPlusRAS yplusRAS output:
    no mutWallFunction patches

yPlusRASLowRe yplusRASLowRe output:
room_SIDE2
    y+ : min = 0.217560477, max = 6.29308369, average = 3.03462312
    y : min = 0.000544684214, max = 0.00250000001, average = 0.00234603179
room_FLOOR
    y+ : min = 0.0833122405, max = 6.29521323, average = 2.36433637
    y : min = 0.000139430812, max = 0.00249999971, average = 0.00161917022
room_CEILING
    y+ : min = 0.284835783, max = 6.29933389, average = 2.93160666
    y : min = 0.000647142072, max = 0.00249999973, average = 0.00231379284
room_BACK
    y+ : min = 0.206032913, max = 46.0736448, average = 3.20595122
    y : min = 0.000872666798, max = 0.00549005797, average = 0.00123342378
room_SIDE1
    y+ : min = 0.0910479433, max = 6.2926995, average = 3.0421255
    y : min = 0.000544684643, max = 0.0025, average = 0.00234602486
manikin
    y+ : min = 0.0552602776, max = 6.84349448, average = 0.894520275
    y : min = 4.97449872e-05, max = 0.00255854003, average = 0.000292020944

forceCoeffs forceCoeffs1 output:
    Cm    = -4493.40121
    Cd    = -98.4528299
    Cl    = -8651.87455
    Cl(f) = -8819.33849
    Cl(r) = 167.463937

Time = 6024

DILUPBiCG:  Solving for Ux, Initial residual = 0.002089431, Final residual = 9.56637694e-05, No Iterations 1
DILUPBiCG:  Solving for Uy, Initial residual = 0.00148582783, Final residual = 1.79509254e-05, No Iterations 1
DILUPBiCG:  Solving for Uz, Initial residual = 0.0021806391, Final residual = 0.000151851193, No Iterations 1
DILUPBiCG:  Solving for h, Initial residual = 0.00127791533, Final residual = 1.56786715e-05, No Iterations 1
GAMG:  Solving for p_rgh, Initial residual = 0.0141474336, Final residual = 8.31307304e-05, No Iterations 3
time step continuity errors : sum local = 1.9336331e-05, global = 6.24553774e-06, cumulative = 0.000492913594
rho max/min : 1.20372638 1.14739985
smoothSolver:  Solving for epsilon, Initial residual = 0.0499403979, Final residual = 0.00480111388, No Iterations 3
smoothSolver:  Solving for k, Initial residual = 0.0207015156, Final residual = 0.0010338794, No Iterations 4
GAMG:  Solving for f, Initial residual = 0.151438564, Final residual = 0.00061792086, No Iterations 1
smoothSolver:  Solving for v2, Initial residual = 0.0453174402, Final residual = 0.00439021055, No Iterations 3
bounding v2, min: 5.94879742e-27 max: 65.2903469 average: 0.0437799594
ExecutionTime = 331.01 s  ClockTime = 331 s

wallHeatFlux wallHeatFlux output:

Wall heat fluxes [W]
room_SIDE2
    convective: 0
    radiative:  -0
    total:      0
    Temperature : min = 292.823844, max = 293.933134, average = 293.572789
room_FLOOR
    convective: 0
    radiative:  -0
    total:      0
    Temperature : min = 292.823844, max = 306.762519, average = 293.80225
room_CEILING
    convective: 0
    radiative:  -0
    total:      0
    Temperature : min = 293.932361, max = 293.932534, average = 293.932419
room_BACK
    convective: 0
    radiative:  -0
    total:      0
    Temperature : min = 292.827225, max = 293.932562, average = 293.601722
room_SIDE1
    convective: 0
    radiative:  -0
    total:      0
    Temperature : min = 292.823844, max = 293.933134, average = 293.570997
manikin
    convective: 18518.5943
    radiative:  -0
    total:      18518.5943
    Temperature : min = 307.15, max = 307.15, average = 307.15

yPlusRAS yplusRAS output:
    no mutWallFunction patches

[...]
bounding v2, min: 3.40813133e-44 max: 64.9759528 average: 0.0622678388
ExecutionTime = 651.89 s  ClockTime = 653 s

wallHeatFlux wallHeatFlux output:

Wall heat fluxes [W]
room_SIDE2
    convective: 0
    radiative:  -0
    total:      0
    Temperature : min = 292.823844, max = 293.933108, average = 293.571646
room_FLOOR
    convective: 0
    radiative:  -0
    total:      0
    Temperature : min = 292.823844, max = 306.887538, average = 294.037848
room_CEILING
    convective: 0
    radiative:  -0
    total:      0
    Temperature : min = 293.932363, max = 293.932533, average = 293.932424
room_BACK
    convective: 0
    radiative:  -0
    total:      0
    Temperature : min = 292.829087, max = 293.932562, average = 293.601489
room_SIDE1
    convective: 0
    radiative:  -0
    total:      0
    Temperature : min = 292.823844, max = 293.933108, average = 293.570121
manikin
    convective: 14913.1047
    radiative:  -0
    total:      14913.1047
    Temperature : min = 307.15, max = 307.15, average = 307.15

yPlusRAS yplusRAS output:
    no mutWallFunction patches

yPlusRASLowRe yplusRASLowRe output:
room_SIDE2
    y+ : min = 0.274198841, max = 6.2721647, average = 2.79253626
    y : min = 0.000544684214, max = 0.00250000001, average = 0.00234603179
room_FLOOR
    y+ : min = 0.0868616052, max = 6.27436363, average = 2.20744116
    y : min = 0.000139430812, max = 0.00249999971, average = 0.00161917022
room_CEILING
    y+ : min = 0.20846444, max = 6.35123025, average = 2.67525168
    y : min = 0.000647142072, max = 0.00249999973, average = 0.00231379284
room_BACK
    y+ : min = 0.224848551, max = 46.6873415, average = 3.07454258
    y : min = 0.000872666798, max = 0.00549005797, average = 0.00123342378
room_SIDE1
    y+ : min = 0.219674709, max = 6.27185618, average = 2.79469534
    y : min = 0.000544684643, max = 0.0025, average = 0.00234602486
manikin
    y+ : min = 0.0260697496, max = 6.62068738, average = 0.878348006
    y : min = 4.97449872e-05, max = 0.00255854003, average = 0.000292020944

forceCoeffs forceCoeffs1 output:
    Cm    = -4492.68637
    Cd    = -98.5655527
    Cl    = -8650.50296
    Cl(f) = -8817.93785
    Cl(r) = 167.434887

Time = 6049

DILUPBiCG:  Solving for Ux, Initial residual = 0.00156115228, Final residual = 1.39936992e-05, No Iterations 1
DILUPBiCG:  Solving for Uy, Initial residual = 0.000625749614, Final residual = 8.18634833e-06, No Iterations 1
DILUPBiCG:  Solving for Uz, Initial residual = 0.0016606668, Final residual = 1.60996179e-05, No Iterations 1
DILUPBiCG:  Solving for h, Initial residual = 0.000927837091, Final residual = 1.30440914e-05, No Iterations 1
GAMG:  Solving for p_rgh, Initial residual = 0.0101032686, Final residual = 4.74940359e-05, No Iterations 3
time step continuity errors : sum local = 9.68603584e-06, global = 2.86040621e-06, cumulative = 0.000616381951
rho max/min : 1.20354086 1.14722307
smoothSolver:  Solving for epsilon, Initial residual = 0.012768371, Final residual = 0.000988497301, No Iterations 3
smoothSolver:  Solving for k, Initial residual = 1.05332708e-05, Final residual = 4.93516646e-07, No Iterations 4
bounding k, min: 2.99998316e-16 max: 20.2426981 average: 0.0418750318
GAMG:  Solving for f, Initial residual = 0.0498065624, Final residual = 0.000194273139, No Iterations 1
smoothSolver:  Solving for v2, Initial residual = 3.92775375e-07, Final residual = 2.90221118e-08, No Iterations 3
bounding v2, min: 3.40694403e-44 max: 65.3429335 average: 0.0620107319
ExecutionTime = 665.81 s  ClockTime = 667 s

wallHeatFlux wallHeatFlux output:

Wall heat fluxes [W]
room_SIDE2
    convective: 0
    radiative:  -0
    total:      0
    Temperature : min = 292.823844, max = 293.933107, average = 293.571608
room_FLOOR
    convective: 0
    radiative:  -0
    total:      0
    Temperature : min = 292.823844, max = 306.891137, average = 294.046594
room_CEILING
    convective: 0
    radiative:  -0
    total:      0
    Temperature : min = 293.932363, max = 293.932533, average = 293.932424
room_BACK
    convective: 0
    radiative:  -0
    total:      0
    Temperature : min = 292.829081, max = 293.932562, average = 293.601489
room_SIDE1
    convective: 0
    radiative:  -0
    total:      0
    Temperature : min = 292.823844, max = 293.933107, average = 293.57009
manikin
    convective: 14794.364
    radiative:  -0
    total:      14794.364
    Temperature : min = 307.15, max = 307.15, average = 307.15

yPlusRAS yplusRAS output:
    no mutWallFunction patches

yPlusRASLowRe yplusRASLowRe output:
room_SIDE2
    y+ : min = 0.265237816, max = 6.27224605, average = 2.78173572
    y : min = 0.000544684214, max = 0.00250000001, average = 0.00234603179
room_FLOOR
    y+ : min = 0.0854140767, max = 6.27444235, average = 2.20078742
    y : min = 0.000139430812, max = 0.00249999971, average = 0.00161917022
room_CEILING
    y+ : min = 0.211862167, max = 6.35221565, average = 2.66348103
    y : min = 0.000647142072, max = 0.00249999973, average = 0.00231379284
room_BACK
    y+ : min = 0.220021945, max = 46.7626534, average = 3.07448514
    y : min = 0.000872666798, max = 0.00549005797, average = 0.00123342378
room_SIDE1
    y+ : min = 0.190967694, max = 6.2719389, average = 2.78379882
    y : min = 0.000544684643, max = 0.0025, average = 0.00234602486
manikin
    y+ : min = 0.0285673762, max = 6.62357654, average = 0.878407423
    y : min = 4.97449872e-05, max = 0.00255854003, average = 0.000292020944

forceCoeffs forceCoeffs1 output:
    Cm    = -4492.6699
    Cd    = -98.5694488
    Cl    = -8650.47131
    Cl(f) = -8817.90555
    Cl(r) = 167.434242

Time = 6050

DILUPBiCG:  Solving for Ux, Initial residual = 0.00156421854, Final residual = 1.43502443e-05, No Iterations 1
DILUPBiCG:  Solving for Uy, Initial residual = 0.000626376153, Final residual = 8.27027601e-06, No Iterations 1
DILUPBiCG:  Solving for Uz, Initial residual = 0.00165987845, Final residual = 1.64282394e-05, No Iterations 1
DILUPBiCG:  Solving for h, Initial residual = 0.000918097256, Final residual = 1.29682908e-05, No Iterations 1
GAMG:  Solving for p_rgh, Initial residual = 0.0100060754, Final residual = 4.57763128e-05, No Iterations 3
time step continuity errors : sum local = 9.35827611e-06, global = 2.67150442e-06, cumulative = 0.000619053456
rho max/min : 1.20353662 1.14721903
smoothSolver:  Solving for epsilon, Initial residual = 0.0137632591, Final residual = 0.00105885008, No Iterations 3
smoothSolver:  Solving for k, Initial residual = 8.05188749e-06, Final residual = 3.70818435e-07, No Iterations 4
bounding k, min: 2.99999303e-16 max: 20.0899244 average: 0.0405602578
GAMG:  Solving for f, Initial residual = 0.0561565412, Final residual = 0.000211152375, No Iterations 1
smoothSolver:  Solving for v2, Initial residual = 2.43048957e-07, Final residual = 1.77904641e-08, No Iterations 3
bounding v2, min: 3.40577908e-44 max: 65.2781307 average: 0.061703581
ExecutionTime = 679.58 s  ClockTime = 680 s

wallHeatFlux wallHeatFlux output:

Wall heat fluxes [W]
room_SIDE2
    convective: 0
    radiative:  -0
    total:      0
    Temperature : min = 292.823844, max = 293.933107, average = 293.571571
room_FLOOR
    convective: 0
    radiative:  -0
    total:      0
    Temperature : min = 292.823844, max = 306.894635, average = 294.055281
room_CEILING
    convective: 0
    radiative:  -0
    total:      0
    Temperature : min = 293.932363, max = 293.932533, average = 293.932424
room_BACK
    convective: 0
    radiative:  -0
    total:      0
    Temperature : min = 292.829076, max = 293.932562, average = 293.601489
room_SIDE1
    convective: 0
    radiative:  -0
    total:      0
    Temperature : min = 292.823844, max = 293.933106, average = 293.570059
manikin
    convective: 14677.5381
    radiative:  -0
    total:      14677.5381
    Temperature : min = 307.15, max = 307.15, average = 307.15

yPlusRAS yplusRAS output:
    no mutWallFunction patches

yPlusRASLowRe yplusRASLowRe output:
room_SIDE2
    y+ : min = 0.255012022, max = 6.27232141, average = 2.77065091
    y : min = 0.000544684214, max = 0.00250000001, average = 0.00234603179
room_FLOOR
    y+ : min = 0.084012662, max = 6.27451466, average = 2.19423929
    y : min = 0.000139430812, max = 0.00249999971, average = 0.00161917022
room_CEILING
    y+ : min = 0.208545828, max = 6.35345687, average = 2.65118013
    y : min = 0.000647142072, max = 0.00249999973, average = 0.00231379284
room_BACK
    y+ : min = 0.215665498, max = 46.8492774, average = 3.07499492
    y : min = 0.000872666798, max = 0.00549005797, average = 0.00123342378
room_SIDE1
    y+ : min = 0.179099884, max = 6.27201541, average = 2.77263444
    y : min = 0.000544684643, max = 0.0025, average = 0.00234602486
manikin
    y+ : min = 0.0263344813, max = 6.62621121, average = 0.878469678
    y : min = 4.97449872e-05, max = 0.00255854003, average = 0.000292020944

forceCoeffs forceCoeffs1 output:
    Cm    = -4492.65503
    Cd    = -98.573217
    Cl    = -8650.44275
    Cl(f) = -8817.87641
    Cl(r) = 167.433657

Time = 6051

DILUPBiCG:  Solving for Ux, Initial residual = 0.00157188897, Final residual = 1.49473379e-05, No Iterations 1
DILUPBiCG:  Solving for Uy, Initial residual = 0.000630255747, Final residual = 8.39095761e-06, No Iterations 1
DILUPBiCG:  Solving for Uz, Initial residual = 0.0016649607, Final residual = 1.6978341e-05, No Iterations 1
DILUPBiCG:  Solving for h, Initial residual = 0.000908564733, Final residual = 1.28890071e-05, No Iterations 1
GAMG:  Solving for p_rgh, Initial residual = 0.0099105451, Final residual = 4.58733571e-05, No Iterations 3
time step continuity errors : sum local = 9.40369552e-06, global = 2.45502768e-06, cumulative = 0.000621508484
rho max/min : 1.2035328 1.14721539
smoothSolver:  Solving for epsilon, Initial residual = 0.0149272298, Final residual = 0.00113790955, No Iterations 3
smoothSolver:  Solving for k, Initial residual = 5.10966542e-06, Final residual = 2.31095051e-07, No Iterations 4
bounding k, min: 2.99990169e-16 max: 19.9265548 average: 0.0392203424
GAMG:  Solving for f, Initial residual = 0.0535558052, Final residual = 0.00018634, No Iterations 1
smoothSolver:  Solving for v2, Initial residual = 1.14561563e-07, Final residual = 8.398545e-09, No Iterations 3
bounding v2, min: 3.4046361e-44 max: 65.3694074 average: 0.0610980428
ExecutionTime = 693.37 s  ClockTime = 694 s

wallHeatFlux wallHeatFlux output:

Wall heat fluxes [W]
room_SIDE2
    convective: 0
    radiative:  -0
    total:      0
    Temperature : min = 292.823844, max = 293.933106, average = 293.571534
room_FLOOR
    convective: 0
    radiative:  -0
    total:      0
    Temperature : min = 292.823844, max = 306.898036, average = 294.063911
room_CEILING
    convective: 0
    radiative:  -0
    total:      0
    Temperature : min = 293.932363, max = 293.932533, average = 293.932424
room_BACK
    convective: 0
    radiative:  -0
    total:      0
    Temperature : min = 292.829071, max = 293.932561, average = 293.60149
room_SIDE1
    convective: 0
    radiative:  -0
    total:      0
    Temperature : min = 292.823844, max = 293.933106, average = 293.570029
manikin
    convective: 14562.5789
    radiative:  -0
    total:      14562.5789
    Temperature : min = 307.15, max = 307.15, average = 307.15

yPlusRAS yplusRAS output:
    no mutWallFunction patches

yPlusRASLowRe yplusRASLowRe output:
room_SIDE2
    y+ : min = 0.232744172, max = 6.27238935, average = 2.7592951
    y : min = 0.000544684214, max = 0.00250000001, average = 0.00234603179
room_FLOOR
    y+ : min = 0.0826633952, max = 6.27457927, average = 2.18782135
    y : min = 0.000139430812, max = 0.00249999971, average = 0.00161917022
room_CEILING
    y+ : min = 0.205344132, max = 6.35497173, average = 2.6382023
    y : min = 0.000647142072, max = 0.00249999973, average = 0.00231379284
room_BACK
    y+ : min = 0.211801004, max = 46.9476841, average = 3.07607187
    y : min = 0.000872666798, max = 0.00549005797, average = 0.00123342378
room_SIDE1
    y+ : min = 0.167321194, max = 6.27208433, average = 2.76119565
    y : min = 0.000544684643, max = 0.0025, average = 0.00234602486
manikin
    y+ : min = 0.0208636622, max = 6.62860443, average = 0.878532575
    y : min = 4.97449872e-05, max = 0.00255854003, average = 0.000292020944

forceCoeffs forceCoeffs1 output:
    Cm    = -4492.64184
    Cd    = -98.5768414
    Cl    = -8650.41742
    Cl(f) = -8817.85055
    Cl(r) = 167.433135

Time = 6052

DILUPBiCG:  Solving for Ux, Initial residual = 0.00158496746, Final residual = 1.57621459e-05, No Iterations 1
DILUPBiCG:  Solving for Uy, Initial residual = 0.00063557368, Final residual = 8.54181591e-06, No Iterations 1
DILUPBiCG:  Solving for Uz, Initial residual = 0.00167598427, Final residual = 1.76508747e-05, No Iterations 1
DILUPBiCG:  Solving for h, Initial residual = 0.000899231449, Final residual = 1.2805938e-05, No Iterations 1
GAMG:  Solving for p_rgh, Initial residual = 0.00977095846, Final residual = 4.92446795e-05, No Iterations 3
time step continuity errors : sum local = 1.01255212e-05, global = 2.18534445e-06, cumulative = 0.000623693828
rho max/min : 1.20352941 1.14721216
smoothSolver:  Solving for epsilon, Initial residual = 0.0162305976, Final residual = 0.00122509603, No Iterations 3
smoothSolver:  Solving for k, Initial residual = 2.5402646e-06, Final residual = 2.53700775e-07, No Iterations 3
bounding k, min: 2.99347759e-16 max: 19.7326709 average: 0.0379392112
GAMG:  Solving for f, Initial residual = 0.0570835102, Final residual = 0.000204604718, No Iterations 1
smoothSolver:  Solving for v2, Initial residual = 4.92943048e-08, Final residual = 8.53265386e-09, No Iterations 2
bounding v2, min: 3.40351473e-44 max: 65.0860819 average: 0.0604348058
ExecutionTime = 707.76 s  ClockTime = 709 s

wallHeatFlux wallHeatFlux output:

Wall heat fluxes [W]
room_SIDE2
    convective: 0
    radiative:  -0
    total:      0
    Temperature : min = 292.823844, max = 293.933105, average = 293.571498
room_FLOOR
    convective: 0
    radiative:  -0
    total:      0
    Temperature : min = 292.823844, max = 306.901342, average = 294.072484
room_CEILING
    convective: 0
    radiative:  -0
    total:      0
    Temperature : min = 293.932363, max = 293.932533, average = 293.932424
room_BACK
    convective: 0
    radiative:  -0
    total:      0
    Temperature : min = 292.829066, max = 293.932561, average = 293.601491
room_SIDE1
    convective: 0
    radiative:  -0
    total:      0
    Temperature : min = 292.823844, max = 293.933105, average = 293.569999
manikin
    convective: 14449.4404
    radiative:  -0
    total:      14449.4404
    Temperature : min = 307.15, max = 307.15, average = 307.15

yPlusRAS yplusRAS output:
    no mutWallFunction patches

yPlusRASLowRe yplusRASLowRe output:
room_SIDE2
    y+ : min = 0.210268154, max = 6.27244902, average = 2.74760215
    y : min = 0.000544684214, max = 0.00250000001, average = 0.00234603179
room_FLOOR
    y+ : min = 0.0813718214, max = 6.27463552, average = 2.18153968
    y : min = 0.000139430812, max = 0.00249999971, average = 0.00161917022
room_CEILING
    y+ : min = 0.202324124, max = 6.35663224, average = 2.62445918
    y : min = 0.000647142072, max = 0.00249999973, average = 0.00231379284
room_BACK
    y+ : min = 0.208532414, max = 47.0575637, average = 3.07770335
    y : min = 0.000872666798, max = 0.00549005797, average = 0.00123342378
room_SIDE1
    y+ : min = 0.15202143, max = 6.27214498, average = 2.74936739
    y : min = 0.000544684643, max = 0.0025, average = 0.00234602486
manikin
    y+ : min = 0.0174581577, max = 6.63076836, average = 0.878593939
    y : min = 4.97449872e-05, max = 0.00255854003, average = 0.000292020944

forceCoeffs forceCoeffs1 output:
    Cm    = -4492.63029
    Cd    = -98.5803432
    Cl    = -8650.39524
    Cl(f) = -8817.82791
    Cl(r) = 167.432676

Time = 6053

DILUPBiCG:  Solving for Ux, Initial residual = 0.00160104207, Final residual = 1.66626672e-05, No Iterations 1
DILUPBiCG:  Solving for Uy, Initial residual = 0.000637518423, Final residual = 8.65339525e-06, No Iterations 1
DILUPBiCG:  Solving for Uz, Initial residual = 0.00169069197, Final residual = 1.8338972e-05, No Iterations 1
DILUPBiCG:  Solving for h, Initial residual = 0.000890091944, Final residual = 1.27198952e-05, No Iterations 1
GAMG:  Solving for p_rgh, Initial residual = 0.00935114378, Final residual = 5.39677643e-05, No Iterations 3
time step continuity errors : sum local = 1.11266193e-05, global = 1.63281454e-06, cumulative = 0.000625326643
rho max/min : 1.20352646 1.14720935
smoothSolver:  Solving for epsilon, Initial residual = 0.017487203, Final residual = 0.00130527795, No Iterations 3
smoothSolver:  Solving for k, Initial residual = 1.1080006e-06, Final residual = 1.086934e-07, No Iterations 3
bounding k, min: 2.99280878e-16 max: 19.5041811 average: 0.0366563882
GAMG:  Solving for f, Initial residual = 0.0590098298, Final residual = 0.000212909007, No Iterations 1
smoothSolver:  Solving for v2, Initial residual = 2.29190274e-08, Final residual = 9.2511921e-09, No Iterations 1
bounding v2, min: 3.40241438e-44 max: 65.3849415 average: 0.0598852605
ExecutionTime = 721.59 s  ClockTime = 722 s

wallHeatFlux wallHeatFlux output:

Wall heat fluxes [W]
room_SIDE2
    convective: 0
    radiative:  -0
    total:      0
    Temperature : min = 292.823844, max = 293.933105, average = 293.571462
room_FLOOR
    convective: 0
    radiative:  -0
    total:      0
    Temperature : min = 292.823844, max = 306.904559, average = 294.081003
room_CEILING
    convective: 0
    radiative:  -0
    total:      0
    Temperature : min = 293.932363, max = 293.932533, average = 293.932424
room_BACK
    convective: 0
    radiative:  -0
    total:      0
    Temperature : min = 292.829062, max = 293.932561, average = 293.601492
room_SIDE1
    convective: 0
    radiative:  -0
    total:      0
    Temperature : min = 292.823844, max = 293.933105, average = 293.569969
manikin
    convective: 14338.0778
    radiative:  -0
    total:      14338.0778
    Temperature : min = 307.15, max = 307.15, average = 307.15

yPlusRAS yplusRAS output:
    no mutWallFunction patches

yPlusRASLowRe yplusRASLowRe output:
room_SIDE2
    y+ : min = 0.18813314, max = 6.27250059, average = 2.73579911
    y : min = 0.000544684214, max = 0.00250000001, average = 0.00234603179
room_FLOOR
    y+ : min = 0.080144047, max = 6.27468374, average = 2.17546521
    y : min = 0.000139430812, max = 0.00249999971, average = 0.00161917022
room_CEILING
    y+ : min = 0.199513155, max = 6.35829188, average = 2.61046567
    y : min = 0.000647142072, max = 0.00249999973, average = 0.00231379284
room_BACK
    y+ : min = 0.205939111, max = 47.1769904, average = 3.07988726
    y : min = 0.000872666798, max = 0.00549005797, average = 0.00123342378
room_SIDE1
    y+ : min = 0.140876003, max = 6.27219771, average = 2.73739723
    y : min = 0.000544684643, max = 0.0025, average = 0.00234602486
manikin
    y+ : min = 0.0238848543, max = 6.63268369, average = 0.878639651
    y : min = 4.97449872e-05, max = 0.00255854003, average = 0.000292020944

forceCoeffs forceCoeffs1 output:
    Cm    = -4492.62123
    Cd    = -98.5836859
    Cl    = -8650.37784
    Cl(f) = -8817.81015
    Cl(r) = 167.432309

Time = 6054

DILUPBiCG:  Solving for Ux, Initial residual = 0.00162026936, Final residual = 1.75690401e-05, No Iterations 1
DILUPBiCG:  Solving for Uy, Initial residual = 0.0006259754, Final residual = 8.56950226e-06, No Iterations 1
DILUPBiCG:  Solving for Uz, Initial residual = 0.00170843242, Final residual = 1.89820016e-05, No Iterations 1
DILUPBiCG:  Solving for h, Initial residual = 0.000881138411, Final residual = 1.26340073e-05, No Iterations 1
GAMG:  Solving for p_rgh, Initial residual = 0.00885044221, Final residual = 6.08285034e-05, No Iterations 3
time step continuity errors : sum local = 1.25642832e-05, global = 5.90579187e-07, cumulative = 0.000625917222
rho max/min : 1.20352415 1.14720715
