/*---------------------------------------------------------------------------*\
| =========                 |                                                 |
| \\      /  F ield         | OpenFOAM: The Open Source CFD Toolbox           |
|  \\    /   O peration     | Version:  2.3.1                                 |
|   \\  /    A nd           | Web:      www.OpenFOAM.org                      |
|    \\/     M anipulation  |                                                 |
\*---------------------------------------------------------------------------*/
Build  : 2.3.1-bcfaaa7b8660
Exec   : snappyHexMesh -parallel -overwrite
Date   : Apr 15 2017
Time   : 23:14:18
Host   : "ubuntu"
PID    : 4995
Case   : /home/cong/Desktop/AIVC/Case1
nProcs : 4
Slaves : 
3
(
"ubuntu.4996"
"ubuntu.4997"
"ubuntu.4998"
)

Pstream initialized with:
    floatTransfer      : 0
    nProcsSimpleSum    : 0
    commsType          : nonBlocking
    polling iterations : 0
sigFpe : Enabling floating point exception trapping (FOAM_SIGFPE).
fileModificationChecking : Monitoring run-time modified files using timeStampMaster
allowSystemOperations : Allowing user-supplied system call operations

// * * * * * * * * * * * * * * * * * * * * * * * * * * * * * * * * * * * * * //
Create time

Create mesh for time = 0

Read mesh in = 0.08 s

Overall mesh bounding box  : (-0.8 -0.5 -0.5) (0.8 2.5 2.5)
Relative tolerance         : 1e-12
Absolute matching distance : 4.53431362e-12

Reading refinement surfaces.
Read refinement surfaces in = 1.37 s

Reading refinement shells.
Refinement level according to distance to room.stl
    level 1 for all cells within 0.08 metre.
Refinement level according to distance to manikin.stl
    level 4 for all cells within 0.01 metre.
    level 3 for all cells within 0.02 metre.
    level 2 for all cells within 0.06 metre.
    level 1 for all cells within 0.1 metre.
Read refinement shells in = 0 s

Setting refinement level of surface to be consistent with shells.
Checked shell refinement in = 1.08 s

Reading features.
Read edgeMesh room.eMesh
    points      : 310
    edges       : 336
    boundingBox : (-0.600000143 -1.43600005e-07 -5.12999989e-08) (0.600000024 2.44000006 2.46000004)

Refinement level according to distance to "room.eMesh" (310 points, 336 edges).
    level 1 for all cells within 0 metre.
Read edgeMesh manikin.eMesh
    points      : 2046
    edges       : 1871
    boundingBox : (-0.262629002 0.729269028 0.00444974983) (0.271382987 1.43563998 1.35169005)

Refinement level according to distance to "manikin.eMesh" (2046 points, 1871 edges).
    level 4 for all cells within 0 metre.
Read features in = 0.03 s


Determining initial surface intersections
-----------------------------------------

Edge intersection testing:
    Number of edges             : 149985
    Number of edges to retest   : 149985
    Number of intersected edges : 7604
Calculated surface intersections in = 0.11 s

Initial mesh : cells:48600  faces:149985  points:52900
Cells per refinement level:
    0	48600

Adding patches for surface regions
----------------------------------

Patch Type                Region                        
----- ----                ------                        
room:

1     wall                room_SIDE2                    
2     wall                room_FLOOR                    
3     wall                room_CEILING                  
4     wall                room_BACK                     
5     wall                room_SIDE1                    
6     patch               room_INLET                    
7     patch               room_OUTLET2                  
8     patch               room_OUTLET1                  

manikin:

9     wall                manikin                       

Added patches in = 0.05 s

Selecting decompositionMethod ptscotch
Layer thickness specified as final layer and overall thickness.

Refinement phase
----------------

Found point (0 1 2) in cell 7596 on processor 3

Feature refinement iteration 0
------------------------------

Marked for refinement due to explicit features             : 470 cells.
Determined cells to refine in = 0.14 s
Selected for feature refinement : 470 cells (out of 48600)
Edge intersection testing:
    Number of edges             : 162660
    Number of edges to retest   : 21113
    Number of intersected edges : 9275
Refined mesh in = 0.09 s
After refinement feature refinement iteration 0 : cells:51890  faces:162660  points:59464
Cells per refinement level:
    0	48130
    1	3760
Balanced mesh in = 0.27 s
After balancing feature refinement iteration 0 : cells:51890  faces:162660  points:59464
Cells per refinement level:
    0	48130
    1	3760

Feature refinement iteration 1
------------------------------

Marked for refinement due to explicit features             : 141 cells.
Determined cells to refine in = 0.16 s
Selected for feature refinement : 263 cells (out of 51890)
Edge intersection testing:
    Number of edges             : 169422
    Number of edges to retest   : 10835
    Number of intersected edges : 10490
Refined mesh in = 0.1 s
After refinement feature refinement iteration 1 : cells:53731  faces:169422  points:62708
Cells per refinement level:
    0	48005
    1	4622
    2	1104
Balanced mesh in = 0.29 s
After balancing feature refinement iteration 1 : cells:53731  faces:169422  points:62708
Cells per refinement level:
    0	48005
    1	4622
    2	1104

Feature refinement iteration 2
------------------------------

Marked for refinement due to explicit features             : 271 cells.
Determined cells to refine in = 0.17 s
Selected for feature refinement : 588 cells (out of 53731)
Edge intersection testing:
    Number of edges             : 184287
    Number of edges to retest   : 24374
    Number of intersected edges : 12723
Refined mesh in = 0.12 s
After refinement feature refinement iteration 2 : cells:57847  faces:184287  points:69646
Cells per refinement level:
    0	47908
    1	5178
    2	2593
    3	2168
Balanced mesh in = 0.29 s
After balancing feature refinement iteration 2 : cells:57847  faces:184287  points:69646
Cells per refinement level:
    0	47908
    1	5178
    2	2593
    3	2168

Feature refinement iteration 3
------------------------------

Marked for refinement due to explicit features             : 503 cells.
Determined cells to refine in = 0.21 s
Selected for feature refinement : 1173 cells (out of 57847)
Edge intersection testing:
    Number of edges             : 213723
    Number of edges to retest   : 50365
    Number of intersected edges : 16843
Refined mesh in = 0.16 s
After refinement feature refinement iteration 3 : cells:66058  faces:213723  points:83267
Cells per refinement level:
    0	47841
    1	5531
    2	3637
    3	5025
    4	4024
Balanced mesh in = 0.36 s
After balancing feature refinement iteration 3 : cells:66058  faces:213723  points:83267
Cells per refinement level:
    0	47841
    1	5531
    2	3637
    3	5025
    4	4024

Feature refinement iteration 4
------------------------------

Marked for refinement due to explicit features             : 0 cells.
Determined cells to refine in = 0.17 s
Selected for feature refinement : 0 cells (out of 66058)
Stopping refining since too few cells selected.


Surface refinement iteration 0
------------------------------

Marked for refinement due to surface intersection          : 15974 cells.
Marked for refinement due to curvature/regions             : 1780 cells.
Determined cells to refine in = 0.03 s
Selected for refinement : 18685 cells (out of 66058)
Edge intersection testing:
    Number of edges             : 641280
    Number of edges to retest   : 555512
    Number of intersected edges : 49804
Refined mesh in = 0.55 s
After refinement surface refinement iteration 0 : cells:196853  faces:641280  points:249905
Cells per refinement level:
    0	36436
    1	95614
    2	11184
    3	16063
    4	23316
    5	14240
Balanced mesh in = 1.09 s
After balancing surface refinement iteration 0 : cells:196853  faces:641280  points:249905
Cells per refinement level:
    0	36436
    1	95614
    2	11184
    3	16063
    4	23316
    5	14240

Surface refinement iteration 1
------------------------------

Marked for refinement due to surface intersection          : 15353 cells.
Marked for refinement due to curvature/regions             : 2086 cells.
Determined cells to refine in = 0.12 s
Selected for refinement : 18675 cells (out of 196853)
Edge intersection testing:
    Number of edges             : 1073025
    Number of edges to retest   : 627000
    Number of intersected edges : 90166
Refined mesh in = 0.99 s
After refinement surface refinement iteration 1 : cells:327578  faces:1073025  points:420670
Cells per refinement level:
    0	36278
    1	90188
    2	60686
    3	42484
    4	67014
    5	30928
Balanced mesh in = 1.57 s
After balancing surface refinement iteration 1 : cells:327578  faces:1073025  points:420670
Cells per refinement level:
    0	36278
    1	90188
    2	60686
    3	42484
    4	67014
    5	30928

Surface refinement iteration 2
------------------------------

Marked for refinement due to surface intersection          : 18780 cells.
Marked for refinement due to curvature/regions             : 1852 cells.
Determined cells to refine in = 0.18 s
Selected for refinement : 22817 cells (out of 327578)
Edge intersection testing:
    Number of edges             : 1602726
    Number of edges to retest   : 771225
    Number of intersected edges : 142406
Refined mesh in = 1.27 s
After refinement surface refinement iteration 2 : cells:487297  faces:1602726  points:631078
Cells per refinement level:
    0	36215
    1	90134
    2	59265
    3	75105
    4	180834
    5	45744
Balanced mesh in = 2.14 s
After balancing surface refinement iteration 2 : cells:487297  faces:1602726  points:631078
Cells per refinement level:
    0	36215
    1	90134
    2	59265
    3	75105
    4	180834
    5	45744

Surface refinement iteration 3
------------------------------

Marked for refinement due to surface intersection          : 18206 cells.
Marked for refinement due to curvature/regions             : 669 cells.
Determined cells to refine in = 0.27 s
Selected for refinement : 20869 cells (out of 487297)
Edge intersection testing:
    Number of edges             : 2082519
    Number of edges to retest   : 720971
    Number of intersected edges : 186780
Refined mesh in = 1.37 s
After refinement surface refinement iteration 3 : cells:633380  faces:2082519  points:818137
Cells per refinement level:
    0	36189
    1	90111
    2	59307
    3	71416
    4	325261
    5	51096
Balanced mesh in = 3.04 s
After balancing surface refinement iteration 3 : cells:633380  faces:2082519  points:818137
Cells per refinement level:
    0	36189
    1	90111
    2	59307
    3	71416
    4	325261
    5	51096

Surface refinement iteration 4
------------------------------

Marked for refinement due to surface intersection          : 468 cells.
Marked for refinement due to curvature/regions             : 376 cells.
Determined cells to refine in = 0.36 s
Selected for refinement : 962 cells (out of 633380)
Edge intersection testing:
    Number of edges             : 2104830
    Number of edges to retest   : 59755
    Number of intersected edges : 188825
Refined mesh in = 1.1 s
After refinement surface refinement iteration 4 : cells:640114  faces:2104830  points:827185
Cells per refinement level:
    0	36188
    1	90109
    2	59334
    3	71318
    4	329061
    5	54104
Balanced mesh in = 3.02 s
After balancing surface refinement iteration 4 : cells:640114  faces:2104830  points:827185
Cells per refinement level:
    0	36188
    1	90109
    2	59334
    3	71318
    4	329061
    5	54104

Surface refinement iteration 5
------------------------------

Marked for refinement due to surface intersection          : 4 cells.
Marked for refinement due to curvature/regions             : 101 cells.
Determined cells to refine in = 0.36 s
Selected for refinement : 125 cells (out of 640114)
Edge intersection testing:
    Number of edges             : 2107791
    Number of edges to retest   : 7294
    Number of intersected edges : 189101
Refined mesh in = 0.93 s
After refinement surface refinement iteration 5 : cells:640989  faces:2107791  points:828419
Cells per refinement level:
    0	36188
    1	90108
    2	59339
    3	71322
    4	329120
    5	54912
Balanced mesh in = 2.72 s
After balancing surface refinement iteration 5 : cells:640989  faces:2107791  points:828419
Cells per refinement level:
    0	36188
    1	90108
    2	59339
    3	71322
    4	329120
    5	54912

Surface refinement iteration 6
------------------------------

Marked for refinement due to surface intersection          : 0 cells.
Marked for refinement due to curvature/regions             : 23 cells.
Determined cells to refine in = 0.4 s
Selected for refinement : 27 cells (out of 640989)
Edge intersection testing:
    Number of edges             : 2108397
    Number of edges to retest   : 1787
    Number of intersected edges : 189126
Refined mesh in = 0.79 s
After refinement surface refinement iteration 6 : cells:641178  faces:2108397  points:828645
Cells per refinement level:
    0	36188
    1	90108
    2	59339
    3	71318
    4	329129
    5	55096
Balanced mesh in = 2.82 s
After balancing surface refinement iteration 6 : cells:641178  faces:2108397  points:828645
Cells per refinement level:
    0	36188
    1	90108
    2	59339
    3	71318
    4	329129
    5	55096

Surface refinement iteration 7
------------------------------

Marked for refinement due to surface intersection          : 0 cells.
Marked for refinement due to curvature/regions             : 0 cells.
Determined cells to refine in = 0.38 s
Selected for refinement : 0 cells (out of 641178)
Stopping refining since too few cells selected.


Removing mesh beyond surface intersections
------------------------------------------

Found point (0 1 2) in global region 1 out of 4 regions.
Keeping all cells in region 1 containing point (0 1 2)
Selected for keeping : 512493 cells.
Edge intersection testing:
    Number of edges             : 1743560
    Number of edges to retest   : 151294
    Number of intersected edges : 189126

Shell refinement iteration 0
----------------------------

Marked for refinement due to distance to explicit features : 0 cells.
Marked for refinement due to refinement shells             : 12938 cells.
Determined cells to refine in = 1.51 s
Selected for internal refinement : 31586 cells (out of 512493)
Edge intersection testing:
    Number of edges             : 2444240
    Number of edges to retest   : 1658505
    Number of intersected edges : 202174
Refined mesh in = 1.91 s
After refinement shell refinement iteration 0 : cells:733595  faces:2444240  points:977919
Cells per refinement level:
    0	16747
    1	71264
    2	55715
    3	59626
    4	387919
    5	142324
Balanced mesh in = 3.96 s
After balancing shell refinement iteration 0 : cells:733595  faces:2444240  points:977949
Cells per refinement level:
    0	16747
    1	71264
    2	55715
    3	59626
    4	387919
    5	142324

Shell refinement iteration 1
----------------------------

Marked for refinement due to distance to explicit features : 0 cells.
Marked for refinement due to refinement shells             : 0 cells.
Determined cells to refine in = 0.37 s
Selected for internal refinement : 5994 cells (out of 733595)
Edge intersection testing:
    Number of edges             : 2569055
    Number of edges to retest   : 492653
    Number of intersected edges : 207417
Refined mesh in = 1.36 s
After refinement shell refinement iteration 1 : cells:775553  faces:2569055  points:1018263
Cells per refinement level:
    0	16558
    1	72197
    2	58900
    3	70132
    4	393770
    5	163996
Balanced mesh in = 3.41 s
After balancing shell refinement iteration 1 : cells:775553  faces:2569055  points:1018287
Cells per refinement level:
    0	16558
    1	72197
    2	58900
    3	70132
    4	393770
    5	163996

Shell refinement iteration 2
----------------------------

Marked for refinement due to distance to explicit features : 0 cells.
Marked for refinement due to refinement shells             : 0 cells.
Determined cells to refine in = 0.3 s
Selected for internal refinement : 454 cells (out of 775553)
Edge intersection testing:
    Number of edges             : 2578745
    Number of edges to retest   : 43914
    Number of intersected edges : 207432
Refined mesh in = 1.23 s
After refinement shell refinement iteration 2 : cells:778731  faces:2578745  points:1021625
Cells per refinement level:
    0	16529
    1	72246
    2	60169
    3	71645
    4	394146
    5	163996
Balanced mesh in = 3.43 s
After balancing shell refinement iteration 2 : cells:778731  faces:2578745  points:1021652
Cells per refinement level:
    0	16529
    1	72246
    2	60169
    3	71645
    4	394146
    5	163996

Shell refinement iteration 3
----------------------------

Marked for refinement due to distance to explicit features : 0 cells.
Marked for refinement due to refinement shells             : 0 cells.
Determined cells to refine in = 0.28 s
Selected for internal refinement : 87 cells (out of 778731)
Edge intersection testing:
    Number of edges             : 2580620
    Number of edges to retest   : 8489
    Number of intersected edges : 207432
Refined mesh in = 1.13 s
After refinement shell refinement iteration 3 : cells:779340  faces:2580620  points:1022311
Cells per refinement level:
    0	16501
    1	72416
    2	60596
    3	71685
    4	394146
    5	163996
Balanced mesh in = 3.25 s
After balancing shell refinement iteration 3 : cells:779340  faces:2580620  points:1022321
Cells per refinement level:
    0	16501
    1	72416
    2	60596
    3	71685
    4	394146
    5	163996

Shell refinement iteration 4
----------------------------

Marked for refinement due to distance to explicit features : 0 cells.
Marked for refinement due to refinement shells             : 0 cells.
Determined cells to refine in = 0.29 s
Selected for internal refinement : 9 cells (out of 779340)
Stopping refining since too few cells selected.


Dangling coarse cells refinement iteration 0
--------------------------------------------

Determined cells to refine in = 0.02 s
Selected for refinement : 105 cells (out of 779340)
Edge intersection testing:
    Number of edges             : 2582189
    Number of edges to retest   : 12791
    Number of intersected edges : 207466
Refined mesh in = 1.13 s
After refinement coarse cell refinement iteration 0 : cells:780075  faces:2582189  points:1022529
Cells per refinement level:
    0	16501
    1	72411
    2	60633
    3	71696
    4	394166
    5	164668
Balanced mesh in = 3.24 s
After balancing coarse cell refinement iteration 0 : cells:780075  faces:2582189  points:1022552
Cells per refinement level:
    0	16501
    1	72411
    2	60633
    3	71696
    4	394166
    5	164668

Dangling coarse cells refinement iteration 1
--------------------------------------------

Determined cells to refine in = 0.09 s
Selected for refinement : 2 cells (out of 780075)
Stopping refining since too few cells selected.


Dangling coarse cells refinement iteration 0
--------------------------------------------

Determined cells to refine in = 0.01 s
Selected for refinement : 9 cells (out of 780075)
Edge intersection testing:
    Number of edges             : 2582297
    Number of edges to retest   : 1166
    Number of intersected edges : 207466
Refined mesh in = 1.06 s
After refinement coarse cell refinement iteration 0 : cells:780138  faces:2582297  points:1022561
Cells per refinement level:
    0	16501
    1	72411
    2	60633
    3	71694
    4	394175
    5	164724
Balanced mesh in = 3.25 s
After balancing coarse cell refinement iteration 0 : cells:780138  faces:2582297  points:1022574
Cells per refinement level:
    0	16501
    1	72411
    2	60633
    3	71694
    4	394175
    5	164724

Dangling coarse cells refinement iteration 1
--------------------------------------------

Determined cells to refine in = 0.08 s
Selected for refinement : 0 cells (out of 780138)
Stopping refining since too few cells selected.


Splitting mesh at surface intersections
---------------------------------------

Introducing baffles for 207466 faces that are intersected by the surface.

Edge intersection testing:
    Number of edges             : 2789763
    Number of edges to retest   : 1250058
    Number of intersected edges : 412039
Created baffles in = 1.48 s


After introducing baffles : cells:780138  faces:2789763  points:1022574
Cells per refinement level:
    0	16501
    1	72411
    2	60633
    3	71694
    4	394175
    5	164724

Introducing baffles to block off problem cells
----------------------------------------------

markFacesOnProblemCells : marked 298041 additional internal faces to be converted into baffles.
Analyzed problem cells in = 0.78 s


Introducing baffles to delete problem cells.

Edge intersection testing:
    Number of edges             : 3087804
    Number of edges to retest   : 1017371
    Number of intersected edges : 412217
Created baffles in = 1.47 s


After introducing baffles : cells:780138  faces:3087804  points:1023574
Cells per refinement level:
    0	16501
    1	72411
    2	60633
    3	71694
    4	394175
    5	164724

Remove unreachable sections of mesh
-----------------------------------

Keeping all cells in region 0 containing point (0 1 2)
Selected for keeping : 528900 cells.
Edge intersection testing:
    Number of edges             : 1813549
    Number of edges to retest   : 0
    Number of intersected edges : 204335
Split mesh in = 1.23 s


After subsetting : cells:528900  faces:1813549  points:758664
Cells per refinement level:
    0	16501
    1	53747
    2	43989
    3	70352
    4	255027
    5	89284

Handling cells with snap problems
---------------------------------

Introducing baffles for 204335 faces that are intersected by the surface.

Edge intersection testing:
    Number of edges             : 1813549
    Number of edges to retest   : 630216
    Number of intersected edges : 204335
Created baffles in = 1.03 s


After introducing baffles : cells:528900  faces:1813549  points:758664
Cells per refinement level:
    0	16501
    1	53747
    2	43989
    3	70352
    4	255027
    5	89284

Introducing baffles to block off problem cells
----------------------------------------------

markFacesOnProblemCells : marked 0 additional internal faces to be converted into baffles.
Analyzed problem cells in = 0.47 s


Introducing baffles to delete problem cells.

Edge intersection testing:
    Number of edges             : 1813549
    Number of edges to retest   : 0
    Number of intersected edges : 204335
Created baffles in = 0.53 s


After introducing baffles : cells:528900  faces:1813549  points:758664
Cells per refinement level:
    0	16501
    1	53747
    2	43989
    3	70352
    4	255027
    5	89284

Remove unreachable sections of mesh
-----------------------------------

Keeping all cells in region 0 containing point (0 1 2)
Selected for keeping : 528900 cells.
Edge intersection testing:
    Number of edges             : 1813549
    Number of edges to retest   : 0
    Number of intersected edges : 204335
Split mesh in = 0.71 s


After subsetting : cells:528900  faces:1813549  points:758664
Cells per refinement level:
    0	16501
    1	53747
    2	43989
    3	70352
    4	255027
    5	89284

Merge free-standing baffles
---------------------------

freeStandingBaffles : detected 70 free-standing baffles out of 70

freeStandingBaffles : detected 56 planar (within 30 degrees) free-standing baffles out of 70

Detected free-standing baffles : 56
Edge intersection testing:
    Number of edges             : 1813493
    Number of edges to retest   : 56
    Number of intersected edges : 204280

Introducing baffles to block off problem cells
----------------------------------------------

markFacesOnProblemCells : marked 0 additional internal faces to be converted into baffles.
Analyzed problem cells in = 1.21 s


Introducing baffles to delete problem cells.

Edge intersection testing:
    Number of edges             : 1813493
    Number of edges to retest   : 0
    Number of intersected edges : 204280
Created baffles in = 0.49 s


After introducing baffles : cells:528900  faces:1813493  points:758664
Cells per refinement level:
    0	16501
    1	53747
    2	43989
    3	70352
    4	255027
    5	89284
Merged free-standing baffles in = 0.04 s


dupNonManifoldPoints : Found : 26 non-manifold points (out of 767429)
Edge intersection testing:
    Number of edges             : 1813493
    Number of edges to retest   : 0
    Number of intersected edges : 204280
Detected unsplittable baffles : 0

Merge refined boundary faces
----------------------------

Merging 938 sets of faces.

Edge intersection testing:
    Number of edges             : 1812059
    Number of edges to retest   : 8946
    Number of intersected edges : 202883

Undo iteration 0
----------------
Checking faces in error :
    non-orthogonality > 80  degrees                        : 0
    faces with face pyramid volume < 1e-30                 : 0
    faces with concavity > 80  degrees                     : 0
    faces with skewness > 4   (internal) or 20  (boundary) : 0
    faces with interpolation weights (0..1)  < 0.005       : 0
    faces with volume ratio of neighbour cells < 0.001     : 0
    faces with face twist < 0.002                          : 0
    faces on cells with determinant < 0.0001                : 0

Merging all points on surface that
- are used by only two boundary faces and
- make an angle with a cosine of more than 0.707106781.

Removing 1605 straight edge points ...

Edge intersection testing:
    Number of edges             : 1812059
    Number of edges to retest   : 13243
    Number of intersected edges : 202883

Undo iteration 0
----------------
Checking faces in error :
    non-orthogonality > 80  degrees                        : 0
    faces with face pyramid volume < 1e-30                 : 0
    faces with concavity > 80  degrees                     : 0
    faces with skewness > 4   (internal) or 20  (boundary) : 0
    faces with interpolation weights (0..1)  < 0.005       : 0
    faces with volume ratio of neighbour cells < 0.001     : 0
    faces with face twist < 0.002                          : 0
    faces on cells with determinant < 0.0001                : 0

Doing final balancing
---------------------

Found 0 zoned faces to keep together.
Found 0 separated coupled faces to keep together.
Refined mesh : cells:528900  faces:1812059  points:756837
Cells per refinement level:
    0	16501
    1	53747
    2	43989
    3	70352
    4	255027
    5	89284
Writing mesh to time constant
Wrote mesh in = 6.67 s.
Mesh refined in = 75.45 s.

Morphing phase
--------------


Snapping to features in 20 iterations ...
Constructing mesh displacer ...
Using mesh parameters 
{
    maxNonOrtho     80;
    maxBoundarySkewness 20;
    maxInternalSkewness 4;
    maxConcave      80;
    minVol          1e-30;
    minTetQuality   -1e+30;
    minVolCollapseRatio -1;
    minArea         -1;
    minTwist        0.002;
    minDeterminant  0.0001;
    minFaceWeight   0.005;
    minVolRatio     0.001;
    minTriangleTwist -1;
    nSmoothScale    4;
    errorReduction  0.75;
    relaxed
    {
        maxNonOrtho     80;
        maxBoundarySkewness 20;
        maxInternalSkewness 10;
        maxConcave      80;
        minVol          1e-60;
        minTetQuality   -1e+30;
        minArea         -1;
        minTwist        -1;
        minDeterminant  0;
        minFaceWeight   0;
        minVolRatio     0;
    }
}


Checking initial mesh ...
Checking faces in error :
    non-orthogonality > 80  degrees                        : 0
    faces with face pyramid volume < 1e-30                 : 0
    faces with concavity > 80  degrees                     : 0
    faces with skewness > 4   (internal) or 20  (boundary) : 0
    faces with interpolation weights (0..1)  < 0.005       : 0
    faces with volume ratio of neighbour cells < 0.001     : 0
    faces with face twist < 0.002                          : 0
    faces on cells with determinant < 0.0001                : 0
Detected 0 illegal faces (concave, zero area or negative cell pyramid volume)
Checked initial mesh in = 0.8 s


Smoothing patch points ...
Smoothing iteration 0
Found 52 non-manifold point(s).

Scaling iteration 0
Moving mesh using displacement scaling : min:1  max:1
Checking faces in error :
    non-orthogonality > 80  degrees                        : 0
    faces with face pyramid volume < 1e-30                 : 0
    faces with concavity > 80  degrees                     : 0
    faces with skewness > 4   (internal) or 20  (boundary) : 0
    faces with interpolation weights (0..1)  < 0.005       : 0
    faces with volume ratio of neighbour cells < 0.001     : 0
    faces with face twist < 0.002                          : 0
    faces on cells with determinant < 0.0001                : 0
Successfully moved mesh

Smoothing iteration 1
Found 0 non-manifold point(s).

Scaling iteration 0
Moving mesh using displacement scaling : min:1  max:1
Checking faces in error :
    non-orthogonality > 80  degrees                        : 0
    faces with face pyramid volume < 1e-30                 : 0
    faces with concavity > 80  degrees                     : 0
    faces with skewness > 4   (internal) or 20  (boundary) : 0
    faces with interpolation weights (0..1)  < 0.005       : 0
    faces with volume ratio of neighbour cells < 0.001     : 0
    faces with face twist < 0.002                          : 0
    faces on cells with determinant < 0.0001                : 0
Successfully moved mesh

Smoothing iteration 2
Found 0 non-manifold point(s).

Scaling iteration 0
Moving mesh using displacement scaling : min:1  max:1
Checking faces in error :
    non-orthogonality > 80  degrees                        : 0
    faces with face pyramid volume < 1e-30                 : 0
    faces with concavity > 80  degrees                     : 0
    faces with skewness > 4   (internal) or 20  (boundary) : 0
    faces with interpolation weights (0..1)  < 0.005       : 0
    faces with volume ratio of neighbour cells < 0.001     : 0
    faces with face twist < 0.002                          : 0
    faces on cells with determinant < 0.0001                : 0
Successfully moved mesh

Smoothing iteration 3
Found 0 non-manifold point(s).

Scaling iteration 0
Moving mesh using displacement scaling : min:1  max:1
Checking faces in error :
    non-orthogonality > 80  degrees                        : 0
    faces with face pyramid volume < 1e-30                 : 0
    faces with concavity > 80  degrees                     : 0
    faces with skewness > 4   (internal) or 20  (boundary) : 0
    faces with interpolation weights (0..1)  < 0.005       : 0
    faces with volume ratio of neighbour cells < 0.001     : 0
    faces with face twist < 0.002                          : 0
    faces on cells with determinant < 0.0001                : 0
Successfully moved mesh

Smoothing iteration 4
Found 0 non-manifold point(s).

Scaling iteration 0
Moving mesh using displacement scaling : min:1  max:1
Checking faces in error :
    non-orthogonality > 80  degrees                        : 0
    faces with face pyramid volume < 1e-30                 : 1
    faces with concavity > 80  degrees                     : 0
    faces with skewness > 4   (internal) or 20  (boundary) : 0
    faces with interpolation weights (0..1)  < 0.005       : 1
    faces with volume ratio of neighbour cells < 0.001     : 0
    faces with face twist < 0.002                          : 0
    faces on cells with determinant < 0.0001                : 0

Scaling iteration 1
Moving mesh using displacement scaling : min:0.75  max:1
Checking faces in error :
    non-orthogonality > 80  degrees                        : 0
    faces with face pyramid volume < 1e-30                 : 0
    faces with concavity > 80  degrees                     : 0
    faces with skewness > 4   (internal) or 20  (boundary) : 0
    faces with interpolation weights (0..1)  < 0.005       : 0
    faces with volume ratio of neighbour cells < 0.001     : 0
    faces with face twist < 0.002                          : 0
    faces on cells with determinant < 0.0001                : 0
Successfully moved mesh

Patch points smoothed in = 4.17 s



Morph iteration 0
-----------------
Calculating patchDisplacement as distance to nearest surface point ...
Wanted displacement : average:0.00169874438 min:5.88244354e-10 max:0.0267563381
Calculated surface displacement in = 0.17 s


Detecting near surfaces ...
Overriding nearest with intersection of close gaps at 40 out of 208970 points.
Overriding displacement on features :
   implicit features    : false
   explicit features    : true
   multi-patch features : true

Detected 14 baffle edges out of 413662 edges.
Initially selected 3958 points out of 208970 for reverse attraction.
Selected 13876 points out of 208970 for reverse attraction.
Removing constraints near multi-patch points : changed 81 points
Stringing feature edges : changed 280 points
Stringing feature edges : changed 13 points
Stringing feature edges : changed 0 points
Attraction:
     linear   : max:(0 -0.0267563381 -6.9388939e-18) avg:(9.5775799e-06 0.000418521614 -9.92138073e-05)
     feature  : max:(0.0267563023 -0.0267564817 -0.0267563381) avg:(1.22581433e-07 2.08205149e-05 -4.15893012e-06)
Feature analysis : total master points:207692 attraction to :
    feature point   : 80
    feature edge    : 2616
    nearest surface : 0
    rest            : 204996

--> FOAM Warning : Displacement (6.52848148e-06 3.37705356e-05 0.000112677768) at mesh point 38744 coord (-0.133322544 0.735532068 0.00417176234) points through the surrounding patch faces
Smoothing displacement ...
Iteration 0
Iteration 10
Iteration 20
Iteration 30
Iteration 40
Iteration 50
Iteration 60
Iteration 70
Iteration 80
Iteration 90
Iteration 100
Iteration 110
Iteration 120
Iteration 130
Iteration 140
Iteration 150
Iteration 160
Iteration 170
Iteration 180
Iteration 190
Iteration 200
Iteration 210
Iteration 220
Iteration 230
Iteration 240
Iteration 250
Iteration 260
Iteration 270
Iteration 280
Iteration 290
Displacement smoothed in = 9.15 s


Moving mesh ...

Iteration 0
Moving mesh using displacement scaling : min:1  max:1
Checking faces in error :
    non-orthogonality > 80  degrees                        : 0
    faces with face pyramid volume < 1e-30                 : 0
    faces with concavity > 80  degrees                     : 0
    faces with skewness > 4   (internal) or 20  (boundary) : 0
    faces with interpolation weights (0..1)  < 0.005       : 0
    faces with volume ratio of neighbour cells < 0.001     : 0
    faces with face twist < 0.002                          : 0
    faces on cells with determinant < 0.0001                : 0
Successfully moved mesh
Moved mesh in = 0.67 s



Morph iteration 1
-----------------
Calculating patchDisplacement as distance to nearest surface point ...
Wanted displacement : average:0.00161662281 min:8.82559008e-09 max:0.0254185212
Calculated surface displacement in = 0.16 s


Detecting near surfaces ...
Overriding nearest with intersection of close gaps at 43 out of 208970 points.
Overriding displacement on features :
   implicit features    : false
   explicit features    : true
   multi-patch features : true

Detected 14 baffle edges out of 413662 edges.
Initially selected 3962 points out of 208970 for reverse attraction.
Selected 13870 points out of 208970 for reverse attraction.
Removing constraints near multi-patch points : changed 81 points
Stringing feature edges : changed 277 points
Stringing feature edges : changed 12 points
Stringing feature edges : changed 0 points
Attraction:
     linear   : max:(0 -0.0254185212 -6.9388939e-18) avg:(8.54915386e-06 0.000398704379 -9.43636969e-05)
     feature  : max:(0.0254184871 -0.0266895904 -0.0266894472) avg:(-2.92808215e-07 2.06169629e-05 -3.83665021e-06)
Feature analysis : total master points:207692 attraction to :
    feature point   : 78
    feature edge    : 2624
    nearest surface : 0
    rest            : 204990

--> FOAM Warning : Displacement (2.05299051e-06 7.61472729e-05 0.000215962625) at mesh point 38599 coord (-0.129146133 0.736047479 0.00430124513) points through the surrounding patch faces
Smoothing displacement ...
Iteration 0
Iteration 10
Iteration 20
Iteration 30
Iteration 40
Iteration 50
Iteration 60
Iteration 70
Iteration 80
Iteration 90
Iteration 100
Iteration 110
Iteration 120
Iteration 130
Iteration 140
Iteration 150
Iteration 160
Iteration 170
Iteration 180
Iteration 190
Iteration 200
Iteration 210
Iteration 220
Iteration 230
Iteration 240
Iteration 250
Iteration 260
Iteration 270
Iteration 280
Iteration 290
Displacement smoothed in = 9.31 s


Moving mesh ...

Iteration 0
Moving mesh using displacement scaling : min:1  max:1
Checking faces in error :
    non-orthogonality > 80  degrees                        : 0
    faces with face pyramid volume < 1e-30                 : 1
    faces with concavity > 80  degrees                     : 0
    faces with skewness > 4   (internal) or 20  (boundary) : 0
    faces with interpolation weights (0..1)  < 0.005       : 0
    faces with volume ratio of neighbour cells < 0.001     : 0
    faces with face twist < 0.002                          : 0
    faces on cells with determinant < 0.0001                : 0

Iteration 1
Moving mesh using displacement scaling : min:0.75  max:1
Checking faces in error :
    non-orthogonality > 80  degrees                        : 0
    faces with face pyramid volume < 1e-30                 : 0
    faces with concavity > 80  degrees                     : 0
    faces with skewness > 4   (internal) or 20  (boundary) : 0
    faces with interpolation weights (0..1)  < 0.005       : 1
    faces with volume ratio of neighbour cells < 0.001     : 0
    faces with face twist < 0.002                          : 0
    faces on cells with determinant < 0.0001                : 0

Iteration 2
Moving mesh using displacement scaling : min:0.5625  max:1
Checking faces in error :
    non-orthogonality > 80  degrees                        : 0
    faces with face pyramid volume < 1e-30                 : 0
    faces with concavity > 80  degrees                     : 0
    faces with skewness > 4   (internal) or 20  (boundary) : 0
    faces with interpolation weights (0..1)  < 0.005       : 0
    faces with volume ratio of neighbour cells < 0.001     : 0
    faces with face twist < 0.002                          : 0
    faces on cells with determinant < 0.0001                : 0
Successfully moved mesh
Moved mesh in = 1.39 s



Morph iteration 2
-----------------
Calculating patchDisplacement as distance to nearest surface point ...
Wanted displacement : average:0.00146040405 min:9.03927628e-10 max:0.022876669
Calculated surface displacement in = 0.16 s


Detecting near surfaces ...
Overriding nearest with intersection of close gaps at 43 out of 208970 points.
Overriding displacement on features :
   implicit features    : false
   explicit features    : true
   multi-patch features : true

Detected 14 baffle edges out of 413662 edges.
Initially selected 3977 points out of 208970 for reverse attraction.
Selected 13903 points out of 208970 for reverse attraction.
Removing constraints near multi-patch points : changed 428 points
Stringing feature edges : changed 293 points
Stringing feature edges : changed 9 points
Stringing feature edges : changed 0 points
Attraction:
     linear   : max:(0 -0.022876669 3.46944695e-18) avg:(6.69240382e-06 0.000360775136 -8.50909182e-05)
     feature  : max:(0.0228766382 -0.0264226943 -0.0264225527) avg:(-1.20745941e-06 1.15797181e-05 -6.8733203e-06)
Feature analysis : total master points:207692 attraction to :
    feature point   : 78
    feature edge    : 2630
    nearest surface : 0
    rest            : 204984

--> FOAM Warning : Displacement (8.40060547e-05 8.11500341e-05 9.67972846e-05) at mesh point 39495 coord (-0.137385403 0.734778596 0.00214288008) points through the surrounding patch faces
Smoothing displacement ...
Iteration 0
Iteration 10
Iteration 20
Iteration 30
Iteration 40
Iteration 50
Iteration 60
Iteration 70
Iteration 80
Iteration 90
Iteration 100
Iteration 110
Iteration 120
Iteration 130
Iteration 140
Iteration 150
Iteration 160
Iteration 170
Iteration 180
Iteration 190
Iteration 200
Iteration 210
Iteration 220
Iteration 230
Iteration 240
Iteration 250
Iteration 260
Iteration 270
Iteration 280
Iteration 290
Displacement smoothed in = 9.33 s


Moving mesh ...

Iteration 0
Moving mesh using displacement scaling : min:1  max:1
Checking faces in error :
    non-orthogonality > 80  degrees                        : 0
    faces with face pyramid volume < 1e-30                 : 1
    faces with concavity > 80  degrees                     : 0
    faces with skewness > 4   (internal) or 20  (boundary) : 0
    faces with interpolation weights (0..1)  < 0.005       : 0
    faces with volume ratio of neighbour cells < 0.001     : 0
    faces with face twist < 0.002                          : 0
    faces on cells with determinant < 0.0001                : 0

Iteration 1
Moving mesh using displacement scaling : min:0.75  max:1
Checking faces in error :
    non-orthogonality > 80  degrees                        : 0
    faces with face pyramid volume < 1e-30                 : 1
    faces with concavity > 80  degrees                     : 0
    faces with skewness > 4   (internal) or 20  (boundary) : 0
    faces with interpolation weights (0..1)  < 0.005       : 0
    faces with volume ratio of neighbour cells < 0.001     : 0
    faces with face twist < 0.002                          : 0
    faces on cells with determinant < 0.0001                : 0

Iteration 2
Moving mesh using displacement scaling : min:0.5625  max:1
Checking faces in error :
    non-orthogonality > 80  degrees                        : 0
    faces with face pyramid volume < 1e-30                 : 1
    faces with concavity > 80  degrees                     : 0
    faces with skewness > 4   (internal) or 20  (boundary) : 0
    faces with interpolation weights (0..1)  < 0.005       : 0
    faces with volume ratio of neighbour cells < 0.001     : 0
    faces with face twist < 0.002                          : 0
    faces on cells with determinant < 0.0001                : 0

Iteration 3
Moving mesh using displacement scaling : min:0.421875  max:1
Checking faces in error :
    non-orthogonality > 80  degrees                        : 0
    faces with face pyramid volume < 1e-30                 : 0
    faces with concavity > 80  degrees                     : 0
    faces with skewness > 4   (internal) or 20  (boundary) : 0
    faces with interpolation weights (0..1)  < 0.005       : 1
    faces with volume ratio of neighbour cells < 0.001     : 0
    faces with face twist < 0.002                          : 0
    faces on cells with determinant < 0.0001                : 0

Iteration 4
Moving mesh using displacement scaling : min:0.31640625  max:1
Checking faces in error :
    non-orthogonality > 80  degrees                        : 0
    faces with face pyramid volume < 1e-30                 : 0
    faces with concavity > 80  degrees                     : 0
    faces with skewness > 4   (internal) or 20  (boundary) : 0
    faces with interpolation weights (0..1)  < 0.005       : 1
    faces with volume ratio of neighbour cells < 0.001     : 0
    faces with face twist < 0.002                          : 0
    faces on cells with determinant < 0.0001                : 0

Iteration 5
Moving mesh using displacement scaling : min:0.237304688  max:1
Checking faces in error :
    non-orthogonality > 80  degrees                        : 0
    faces with face pyramid volume < 1e-30                 : 0
    faces with concavity > 80  degrees                     : 0
    faces with skewness > 4   (internal) or 20  (boundary) : 0
    faces with interpolation weights (0..1)  < 0.005       : 0
    faces with volume ratio of neighbour cells < 0.001     : 0
    faces with face twist < 0.002                          : 0
    faces on cells with determinant < 0.0001                : 0
Successfully moved mesh
Moved mesh in = 2.33 s



Morph iteration 3
-----------------
Calculating patchDisplacement as distance to nearest surface point ...
Wanted displacement : average:0.0012496767 min:7.25935366e-09 max:0.0194451687
Calculated surface displacement in = 0.16 s


Detecting near surfaces ...
Overriding nearest with intersection of close gaps at 43 out of 208970 points.
Overriding displacement on features :
   implicit features    : false
   explicit features    : true
   multi-patch features : true

Detected 8 baffle edges out of 413662 edges.
Initially selected 3990 points out of 208970 for reverse attraction.
Selected 13873 points out of 208970 for reverse attraction.
Removing constraints near multi-patch points : changed 78 points
Stringing feature edges : changed 305 points
Stringing feature edges : changed 11 points
Stringing feature edges : changed 1 points
Stringing feature edges : changed 1 points
Stringing feature edges : changed 0 points
Attraction:
     linear   : max:(0 -0.0194451687 6.9388939e-18) avg:(4.36022635e-06 0.000305846391 -7.31130974e-05)
     feature  : max:(0.0194451422 -0.0258281834 -0.0258280453) avg:(-1.98829889e-06 1.85983223e-05 -2.94662274e-06)
Feature analysis : total master points:207692 attraction to :
    feature point   : 84
    feature edge    : 2635
    nearest surface : 0
    rest            : 204973

--> FOAM Warning : Displacement (0.000191054554 -1.84963504e-06 0.000331398859) at mesh point 38602 coord (-0.162243222 0.754511169 0.00456120221) points through the surrounding patch faces
Smoothing displacement ...
Iteration 0
Iteration 10
Iteration 20
Iteration 30
Iteration 40
Iteration 50
Iteration 60
Iteration 70
Iteration 80
Iteration 90
Iteration 100
Iteration 110
Iteration 120
Iteration 130
Iteration 140
Iteration 150
Iteration 160
Iteration 170
Iteration 180
Iteration 190
Iteration 200
Iteration 210
Iteration 220
Iteration 230
Iteration 240
Iteration 250
Iteration 260
Iteration 270
Iteration 280
Iteration 290
Displacement smoothed in = 9.58 s


Moving mesh ...

Iteration 0
Moving mesh using displacement scaling : min:1  max:1
Checking faces in error :
    non-orthogonality > 80  degrees                        : 0
    faces with face pyramid volume < 1e-30                 : 2
    faces with concavity > 80  degrees                     : 0
    faces with skewness > 4   (internal) or 20  (boundary) : 0
    faces with interpolation weights (0..1)  < 0.005       : 0
    faces with volume ratio of neighbour cells < 0.001     : 0
    faces with face twist < 0.002                          : 0
    faces on cells with determinant < 0.0001                : 0

Iteration 1
Moving mesh using displacement scaling : min:0.75  max:1
Checking faces in error :
    non-orthogonality > 80  degrees                        : 0
    faces with face pyramid volume < 1e-30                 : 1
    faces with concavity > 80  degrees                     : 0
    faces with skewness > 4   (internal) or 20  (boundary) : 0
    faces with interpolation weights (0..1)  < 0.005       : 1
    faces with volume ratio of neighbour cells < 0.001     : 0
    faces with face twist < 0.002                          : 0
    faces on cells with determinant < 0.0001                : 0

Iteration 2
Moving mesh using displacement scaling : min:0.5625  max:1
Checking faces in error :
    non-orthogonality > 80  degrees                        : 0
    faces with face pyramid volume < 1e-30                 : 1
    faces with concavity > 80  degrees                     : 0
    faces with skewness > 4   (internal) or 20  (boundary) : 0
    faces with interpolation weights (0..1)  < 0.005       : 0
    faces with volume ratio of neighbour cells < 0.001     : 0
    faces with face twist < 0.002                          : 0
    faces on cells with determinant < 0.0001                : 0

Iteration 3
Moving mesh using displacement scaling : min:0.421875  max:1
Checking faces in error :
    non-orthogonality > 80  degrees                        : 0
    faces with face pyramid volume < 1e-30                 : 0
    faces with concavity > 80  degrees                     : 0
    faces with skewness > 4   (internal) or 20  (boundary) : 0
    faces with interpolation weights (0..1)  < 0.005       : 1
    faces with volume ratio of neighbour cells < 0.001     : 0
    faces with face twist < 0.002                          : 0
    faces on cells with determinant < 0.0001                : 0

Iteration 4
Moving mesh using displacement scaling : min:0.31640625  max:1
Checking faces in error :
    non-orthogonality > 80  degrees                        : 0
    faces with face pyramid volume < 1e-30                 : 0
    faces with concavity > 80  degrees                     : 0
    faces with skewness > 4   (internal) or 20  (boundary) : 0
    faces with interpolation weights (0..1)  < 0.005       : 1
    faces with volume ratio of neighbour cells < 0.001     : 0
    faces with face twist < 0.002                          : 0
    faces on cells with determinant < 0.0001                : 0

Iteration 5
Moving mesh using displacement scaling : min:0.237304688  max:1
Checking faces in error :
    non-orthogonality > 80  degrees                        : 0
    faces with face pyramid volume < 1e-30                 : 0
    faces with concavity > 80  degrees                     : 0
    faces with skewness > 4   (internal) or 20  (boundary) : 0
    faces with interpolation weights (0..1)  < 0.005       : 0
    faces with volume ratio of neighbour cells < 0.001     : 0
    faces with face twist < 0.002                          : 0
    faces on cells with determinant < 0.0001                : 0
Successfully moved mesh
Moved mesh in = 2.39 s



Morph iteration 4
-----------------
Calculating patchDisplacement as distance to nearest surface point ...
Wanted displacement : average:0.00101215382 min:5.14253423e-09 max:0.015556135
Calculated surface displacement in = 0.15 s


Detecting near surfaces ...
Overriding nearest with intersection of close gaps at 40 out of 208970 points.
Overriding displacement on features :
   implicit features    : false
   explicit features    : true
   multi-patch features : true

Detected 8 baffle edges out of 413662 edges.
Initially selected 4015 points out of 208970 for reverse attraction.
Selected 13923 points out of 208970 for reverse attraction.
Removing constraints near multi-patch points : changed 12 points
Stringing feature edges : changed 305 points
Stringing feature edges : changed 16 points
Stringing feature edges : changed 1 points
Stringing feature edges : changed 1 points
Stringing feature edges : changed 0 points
Attraction:
     linear   : max:(0 -0.015556135 3.46944695e-18) avg:(2.04500552e-06 0.000247106189 -5.87214648e-05)
     feature  : max:(0.0155561134 -0.0247950558 -0.0247949235) avg:(-2.84255948e-06 1.79601109e-05 -2.74169669e-06)
Feature analysis : total master points:207692 attraction to :
    feature point   : 92
    feature edge    : 2636
    nearest surface : 0
    rest            : 204964

--> FOAM Warning : Displacement (0.000120371675 0.000405153204 0.000482181493) at mesh point 38778 coord (-0.120411243 0.741542621 0.00442133726) points through the surrounding patch faces
Smoothing displacement ...
Iteration 0
Iteration 10
Iteration 20
Iteration 30
Iteration 40
Iteration 50
Iteration 60
Iteration 70
Iteration 80
Iteration 90
Iteration 100
Iteration 110
Iteration 120
Iteration 130
Iteration 140
Iteration 150
Iteration 160
Iteration 170
Iteration 180
Iteration 190
Iteration 200
Iteration 210
Iteration 220
Iteration 230
Iteration 240
Iteration 250
Iteration 260
Iteration 270
Iteration 280
Iteration 290
Displacement smoothed in = 10.15 s


Moving mesh ...

Iteration 0
Moving mesh using displacement scaling : min:1  max:1
Checking faces in error :
    non-orthogonality > 80  degrees                        : 0
    faces with face pyramid volume < 1e-30                 : 1
    faces with concavity > 80  degrees                     : 0
    faces with skewness > 4   (internal) or 20  (boundary) : 0
    faces with interpolation weights (0..1)  < 0.005       : 0
    faces with volume ratio of neighbour cells < 0.001     : 0
    faces with face twist < 0.002                          : 0
    faces on cells with determinant < 0.0001                : 0

Iteration 1
Moving mesh using displacement scaling : min:0.75  max:1
Checking faces in error :
    non-orthogonality > 80  degrees                        : 0
    faces with face pyramid volume < 1e-30                 : 1
    faces with concavity > 80  degrees                     : 0
    faces with skewness > 4   (internal) or 20  (boundary) : 0
    faces with interpolation weights (0..1)  < 0.005       : 0
    faces with volume ratio of neighbour cells < 0.001     : 0
    faces with face twist < 0.002                          : 0
    faces on cells with determinant < 0.0001                : 0

Iteration 2
Moving mesh using displacement scaling : min:0.5625  max:1
Checking faces in error :
    non-orthogonality > 80  degrees                        : 0
    faces with face pyramid volume < 1e-30                 : 1
    faces with concavity > 80  degrees                     : 0
    faces with skewness > 4   (internal) or 20  (boundary) : 0
    faces with interpolation weights (0..1)  < 0.005       : 0
    faces with volume ratio of neighbour cells < 0.001     : 0
    faces with face twist < 0.002                          : 0
    faces on cells with determinant < 0.0001                : 0

Iteration 3
Moving mesh using displacement scaling : min:0.421875  max:1
Checking faces in error :
    non-orthogonality > 80  degrees                        : 0
    faces with face pyramid volume < 1e-30                 : 0
    faces with concavity > 80  degrees                     : 0
    faces with skewness > 4   (internal) or 20  (boundary) : 0
    faces with interpolation weights (0..1)  < 0.005       : 1
    faces with volume ratio of neighbour cells < 0.001     : 0
    faces with face twist < 0.002                          : 0
    faces on cells with determinant < 0.0001                : 0

Iteration 4
Moving mesh using displacement scaling : min:0.31640625  max:1
Checking faces in error :
    non-orthogonality > 80  degrees                        : 0
    faces with face pyramid volume < 1e-30                 : 0
    faces with concavity > 80  degrees                     : 0
    faces with skewness > 4   (internal) or 20  (boundary) : 0
    faces with interpolation weights (0..1)  < 0.005       : 1
    faces with volume ratio of neighbour cells < 0.001     : 0
    faces with face twist < 0.002                          : 0
    faces on cells with determinant < 0.0001                : 0

Iteration 5
Moving mesh using displacement scaling : min:0.237304688  max:1
Checking faces in error :
    non-orthogonality > 80  degrees                        : 0
    faces with face pyramid volume < 1e-30                 : 0
    faces with concavity > 80  degrees                     : 0
    faces with skewness > 4   (internal) or 20  (boundary) : 0
    faces with interpolation weights (0..1)  < 0.005       : 1
    faces with volume ratio of neighbour cells < 0.001     : 0
    faces with face twist < 0.002                          : 0
    faces on cells with determinant < 0.0001                : 0

Iteration 6
Moving mesh using displacement scaling : min:0.177978516  max:1
Checking faces in error :
    non-orthogonality > 80  degrees                        : 0
    faces with face pyramid volume < 1e-30                 : 0
    faces with concavity > 80  degrees                     : 0
    faces with skewness > 4   (internal) or 20  (boundary) : 0
    faces with interpolation weights (0..1)  < 0.005       : 0
    faces with volume ratio of neighbour cells < 0.001     : 0
    faces with face twist < 0.002                          : 0
    faces on cells with determinant < 0.0001                : 0
Successfully moved mesh
Moved mesh in = 2.87 s



Morph iteration 5
-----------------
Calculating patchDisplacement as distance to nearest surface point ...
Wanted displacement : average:0.00077530004 min:7.93934511e-10 max:0.0118155285
Calculated surface displacement in = 0.13 s


Detecting near surfaces ...
Overriding nearest with intersection of close gaps at 42 out of 208970 points.
Overriding displacement on features :
   implicit features    : false
   explicit features    : true
   multi-patch features : true

Detected 8 baffle edges out of 413662 edges.
Initially selected 4004 points out of 208970 for reverse attraction.
Selected 13920 points out of 208970 for reverse attraction.
Removing constraints near multi-patch points : changed 343 points
Stringing feature edges : changed 300 points
Stringing feature edges : changed 16 points
Stringing feature edges : changed 1 points
Stringing feature edges : changed 1 points
Stringing feature edges : changed 0 points
Attraction:
     linear   : max:(-4.71308381e-09 -0.0118155285 2.29906504e-09) avg:(2.02692895e-07 0.000187384064 -4.43717489e-05)
     feature  : max:(0.0116670847 -0.0232453646 -0.0232452408) avg:(-3.71120439e-06 6.11991331e-06 -5.23639476e-06)
Feature analysis : total master points:207692 attraction to :
    feature point   : 90
    feature edge    : 2634
    nearest surface : 0
    rest            : 204968

--> FOAM Warning : Displacement (-0.000196630384 4.33662572e-05 4.15550504e-05) at mesh point 38689 coord (-0.124765214 0.736689147 0.00182268813) points through the surrounding patch faces
Smoothing displacement ...
Iteration 0
Iteration 10
Iteration 20
Iteration 30
Iteration 40
Iteration 50
Iteration 60
Iteration 70
Iteration 80
Iteration 90
Iteration 100
Iteration 110
Iteration 120
Iteration 130
Iteration 140
Iteration 150
Iteration 160
Iteration 170
Iteration 180
Iteration 190
Iteration 200
Iteration 210
Iteration 220
Iteration 230
Iteration 240
Iteration 250
Iteration 260
Iteration 270
Iteration 280
Iteration 290
Displacement smoothed in = 9.89 s


Moving mesh ...

Iteration 0
Moving mesh using displacement scaling : min:1  max:1
Checking faces in error :
    non-orthogonality > 80  degrees                        : 0
    faces with face pyramid volume < 1e-30                 : 1
    faces with concavity > 80  degrees                     : 0
    faces with skewness > 4   (internal) or 20  (boundary) : 0
    faces with interpolation weights (0..1)  < 0.005       : 1
    faces with volume ratio of neighbour cells < 0.001     : 0
    faces with face twist < 0.002                          : 0
    faces on cells with determinant < 0.0001                : 0

Iteration 1
Moving mesh using displacement scaling : min:0.75  max:1
Checking faces in error :
    non-orthogonality > 80  degrees                        : 0
    faces with face pyramid volume < 1e-30                 : 1
    faces with concavity > 80  degrees                     : 0
    faces with skewness > 4   (internal) or 20  (boundary) : 0
    faces with interpolation weights (0..1)  < 0.005       : 0
    faces with volume ratio of neighbour cells < 0.001     : 0
    faces with face twist < 0.002                          : 0
    faces on cells with determinant < 0.0001                : 0

Iteration 2
Moving mesh using displacement scaling : min:0.5625  max:1
Checking faces in error :
    non-orthogonality > 80  degrees                        : 0
    faces with face pyramid volume < 1e-30                 : 1
    faces with concavity > 80  degrees                     : 0
    faces with skewness > 4   (internal) or 20  (boundary) : 0
    faces with interpolation weights (0..1)  < 0.005       : 0
    faces with volume ratio of neighbour cells < 0.001     : 0
    faces with face twist < 0.002                          : 0
    faces on cells with determinant < 0.0001                : 0

Iteration 3
Moving mesh using displacement scaling : min:0.421875  max:1
Checking faces in error :
    non-orthogonality > 80  degrees                        : 0
    faces with face pyramid volume < 1e-30                 : 1
    faces with concavity > 80  degrees                     : 0
    faces with skewness > 4   (internal) or 20  (boundary) : 0
    faces with interpolation weights (0..1)  < 0.005       : 0
    faces with volume ratio of neighbour cells < 0.001     : 0
    faces with face twist < 0.002                          : 0
    faces on cells with determinant < 0.0001                : 0

Iteration 4
Moving mesh using displacement scaling : min:0.31640625  max:1
Checking faces in error :
    non-orthogonality > 80  degrees                        : 0
    faces with face pyramid volume < 1e-30                 : 0
    faces with concavity > 80  degrees                     : 0
    faces with skewness > 4   (internal) or 20  (boundary) : 0
    faces with interpolation weights (0..1)  < 0.005       : 1
    faces with volume ratio of neighbour cells < 0.001     : 0
    faces with face twist < 0.002                          : 0
    faces on cells with determinant < 0.0001                : 0

Iteration 5
Moving mesh using displacement scaling : min:0.237304688  max:1
Checking faces in error :
    non-orthogonality > 80  degrees                        : 0
    faces with face pyramid volume < 1e-30                 : 0
    faces with concavity > 80  degrees                     : 0
    faces with skewness > 4   (internal) or 20  (boundary) : 0
    faces with interpolation weights (0..1)  < 0.005       : 1
    faces with volume ratio of neighbour cells < 0.001     : 0
    faces with face twist < 0.002                          : 0
    faces on cells with determinant < 0.0001                : 0

Iteration 6
Moving mesh using displacement scaling : min:0.177978516  max:1
Checking faces in error :
    non-orthogonality > 80  degrees                        : 0
    faces with face pyramid volume < 1e-30                 : 0
    faces with concavity > 80  degrees                     : 0
    faces with skewness > 4   (internal) or 20  (boundary) : 0
    faces with interpolation weights (0..1)  < 0.005       : 0
    faces with volume ratio of neighbour cells < 0.001     : 0
    faces with face twist < 0.002                          : 0
    faces on cells with determinant < 0.0001                : 0
Successfully moved mesh
Moved mesh in = 2.58 s



Morph iteration 6
-----------------
Calculating patchDisplacement as distance to nearest surface point ...
Wanted displacement : average:0.000562867978 min:7.47166945e-09 max:0.009725267
Calculated surface displacement in = 0.13 s


Detecting near surfaces ...
Overriding nearest with intersection of close gaps at 44 out of 208970 points.
Overriding displacement on features :
   implicit features    : false
   explicit features    : true
   multi-patch features : true

Detected 4 baffle edges out of 413662 edges.
Initially selected 4007 points out of 208970 for reverse attraction.
Selected 13960 points out of 208970 for reverse attraction.
Removing constraints near multi-patch points : changed 8 points
Stringing feature edges : changed 296 points
Stringing feature edges : changed 16 points
Stringing feature edges : changed 2 points
Stringing feature edges : changed 1 points
Stringing feature edges : changed 0 points
Attraction:
     linear   : max:(-3.87930155e-09 -0.009725267 1.89234205e-09) avg:(-8.71687857e-07 0.000130557014 -3.15532467e-05)
     feature  : max:(0.00816695888 -0.0211532816 -0.0211531691) avg:(-4.07640203e-06 1.50955205e-05 -1.13803332e-06)
Feature analysis : total master points:207692 attraction to :
    feature point   : 94
    feature edge    : 2625
    nearest surface : 0
    rest            : 204973

--> FOAM Warning : Displacement (-0.000245281513 5.54729161e-05 0.000147687097) at mesh point 38689 coord (-0.124961844 0.736732513 0.00186424318) points through the surrounding patch faces
Smoothing displacement ...
Iteration 0
Iteration 10
Iteration 20
Iteration 30
Iteration 40
Iteration 50
Iteration 60
Iteration 70
Iteration 80
Iteration 90
Iteration 100
Iteration 110
Iteration 120
Iteration 130
Iteration 140
Iteration 150
Iteration 160
Iteration 170
Iteration 180
Iteration 190
Iteration 200
Iteration 210
Iteration 220
Iteration 230
Iteration 240
Iteration 250
Iteration 260
Iteration 270
Iteration 280
Iteration 290
Displacement smoothed in = 9.76 s


Moving mesh ...

Iteration 0
Moving mesh using displacement scaling : min:1  max:1
Checking faces in error :
    non-orthogonality > 80  degrees                        : 0
    faces with face pyramid volume < 1e-30                 : 1
    faces with concavity > 80  degrees                     : 0
    faces with skewness > 4   (internal) or 20  (boundary) : 0
    faces with interpolation weights (0..1)  < 0.005       : 0
    faces with volume ratio of neighbour cells < 0.001     : 0
    faces with face twist < 0.002                          : 3
    faces on cells with determinant < 0.0001                : 0

Iteration 1
Moving mesh using displacement scaling : min:0.75  max:1
Checking faces in error :
    non-orthogonality > 80  degrees                        : 0
    faces with face pyramid volume < 1e-30                 : 1
    faces with concavity > 80  degrees                     : 0
    faces with skewness > 4   (internal) or 20  (boundary) : 0
    faces with interpolation weights (0..1)  < 0.005       : 0
    faces with volume ratio of neighbour cells < 0.001     : 0
    faces with face twist < 0.002                          : 2
    faces on cells with determinant < 0.0001                : 0

Iteration 2
Moving mesh using displacement scaling : min:0.5625  max:1
Checking faces in error :
    non-orthogonality > 80  degrees                        : 0
    faces with face pyramid volume < 1e-30                 : 1
    faces with concavity > 80  degrees                     : 0
    faces with skewness > 4   (internal) or 20  (boundary) : 0
    faces with interpolation weights (0..1)  < 0.005       : 0
    faces with volume ratio of neighbour cells < 0.001     : 0
    faces with face twist < 0.002                          : 2
    faces on cells with determinant < 0.0001                : 0

Iteration 3
Moving mesh using displacement scaling : min:0.421875  max:1
Checking faces in error :
    non-orthogonality > 80  degrees                        : 0
    faces with face pyramid volume < 1e-30                 : 1
    faces with concavity > 80  degrees                     : 0
    faces with skewness > 4   (internal) or 20  (boundary) : 0
    faces with interpolation weights (0..1)  < 0.005       : 0
    faces with volume ratio of neighbour cells < 0.001     : 0
    faces with face twist < 0.002                          : 2
    faces on cells with determinant < 0.0001                : 0

Iteration 4
Moving mesh using displacement scaling : min:0.31640625  max:1
Checking faces in error :
    non-orthogonality > 80  degrees                        : 0
    faces with face pyramid volume < 1e-30                 : 0
    faces with concavity > 80  degrees                     : 0
    faces with skewness > 4   (internal) or 20  (boundary) : 0
    faces with interpolation weights (0..1)  < 0.005       : 1
    faces with volume ratio of neighbour cells < 0.001     : 0
    faces with face twist < 0.002                          : 1
    faces on cells with determinant < 0.0001                : 0

Iteration 5
Moving mesh using displacement scaling : min:0.237304688  max:1
Checking faces in error :
    non-orthogonality > 80  degrees                        : 0
    faces with face pyramid volume < 1e-30                 : 0
    faces with concavity > 80  degrees                     : 0
    faces with skewness > 4   (internal) or 20  (boundary) : 0
    faces with interpolation weights (0..1)  < 0.005       : 1
    faces with volume ratio of neighbour cells < 0.001     : 0
    faces with face twist < 0.002                          : 1
    faces on cells with determinant < 0.0001                : 0

Iteration 6
Moving mesh using displacement scaling : min:0.177978516  max:1
Checking faces in error :
    non-orthogonality > 80  degrees                        : 0
    faces with face pyramid volume < 1e-30                 : 0
    faces with concavity > 80  degrees                     : 0
    faces with skewness > 4   (internal) or 20  (boundary) : 0
    faces with interpolation weights (0..1)  < 0.005       : 0
    faces with volume ratio of neighbour cells < 0.001     : 0
    faces with face twist < 0.002                          : 1
    faces on cells with determinant < 0.0001                : 0

Iteration 7
Moving mesh using displacement scaling : min:0.133483887  max:1
Checking faces in error :
    non-orthogonality > 80  degrees                        : 0
    faces with face pyramid volume < 1e-30                 : 0
    faces with concavity > 80  degrees                     : 0
    faces with skewness > 4   (internal) or 20  (boundary) : 0
    faces with interpolation weights (0..1)  < 0.005       : 0
    faces with volume ratio of neighbour cells < 0.001     : 0
    faces with face twist < 0.002                          : 1
    faces on cells with determinant < 0.0001                : 0

Iteration 8
Displacement scaling for error reduction set to 0.
Moving mesh using displacement scaling : min:0.100112915  max:1
Checking faces in error :
    non-orthogonality > 80  degrees                        : 0
    faces with face pyramid volume < 1e-30                 : 0
    faces with concavity > 80  degrees                     : 0
    faces with skewness > 4   (internal) or 20  (boundary) : 0
    faces with interpolation weights (0..1)  < 0.005       : 0
    faces with volume ratio of neighbour cells < 0.001     : 0
    faces with face twist < 0.002                          : 0
    faces on cells with determinant < 0.0001                : 0
Successfully moved mesh
Moved mesh in = 3.62 s



Morph iteration 7
-----------------
Calculating patchDisplacement as distance to nearest surface point ...
Wanted displacement : average:0.000392247118 min:1.30998925e-10 max:0.00722205902
Calculated surface displacement in = 0.15 s


Detecting near surfaces ...
Overriding nearest with intersection of close gaps at 47 out of 208970 points.
Overriding displacement on features :
   implicit features    : false
   explicit features    : true
   multi-patch features : true

Detected 2 baffle edges out of 413662 edges.
Initially selected 3970 points out of 208970 for reverse attraction.
Selected 13824 points out of 208970 for reverse attraction.
Removing constraints near multi-patch points : changed 8 points
Stringing feature edges : changed 286 points
Stringing feature edges : changed 12 points
Stringing feature edges : changed 1 points
Stringing feature edges : changed 0 points
Attraction:
     linear   : max:(-2.8807996e-09 -0.00722205902 1.40526794e-09) avg:(-1.11597692e-06 8.52131445e-05 -2.09654141e-05)
     feature  : max:(0.00530852288 -0.0185620044 -0.0185619059) avg:(-4.3179247e-06 1.3214611e-05 -5.87813921e-07)
Feature analysis : total master points:207692 attraction to :
    feature point   : 88
    feature edge    : 2612
    nearest surface : 0
    rest            : 204992

--> FOAM Warning : Displacement (0.000105524685 0.000375863956 0.000177295561) at mesh point 38757 coord (-0.128742185 0.736193749 0.0019865703) points through the surrounding patch faces
Smoothing displacement ...
Iteration 0
Iteration 10
Iteration 20
Iteration 30
Iteration 40
Iteration 50
Iteration 60
Iteration 70
Iteration 80
Iteration 90
Iteration 100
Iteration 110
Iteration 120
Iteration 130
Iteration 140
Iteration 150
Iteration 160
Iteration 170
Iteration 180
Iteration 190
Iteration 200
Iteration 210
Iteration 220
Iteration 230
Iteration 240
Iteration 250
Iteration 260
Iteration 270
Iteration 280
Iteration 290
Displacement smoothed in = 9.94 s


Moving mesh ...

Iteration 0
Moving mesh using displacement scaling : min:1  max:1
Checking faces in error :
    non-orthogonality > 80  degrees                        : 0
    faces with face pyramid volume < 1e-30                 : 1
    faces with concavity > 80  degrees                     : 0
    faces with skewness > 4   (internal) or 20  (boundary) : 0
    faces with interpolation weights (0..1)  < 0.005       : 0
    faces with volume ratio of neighbour cells < 0.001     : 0
    faces with face twist < 0.002                          : 5
    faces on cells with determinant < 0.0001                : 0

Iteration 1
Moving mesh using displacement scaling : min:0.75  max:1
Checking faces in error :
    non-orthogonality > 80  degrees                        : 0
    faces with face pyramid volume < 1e-30                 : 1
    faces with concavity > 80  degrees                     : 0
    faces with skewness > 4   (internal) or 20  (boundary) : 0
    faces with interpolation weights (0..1)  < 0.005       : 0
    faces with volume ratio of neighbour cells < 0.001     : 0
    faces with face twist < 0.002                          : 3
    faces on cells with determinant < 0.0001                : 0

Iteration 2
Moving mesh using displacement scaling : min:0.5625  max:1
Checking faces in error :
    non-orthogonality > 80  degrees                        : 0
    faces with face pyramid volume < 1e-30                 : 1
    faces with concavity > 80  degrees                     : 0
    faces with skewness > 4   (internal) or 20  (boundary) : 0
    faces with interpolation weights (0..1)  < 0.005       : 0
    faces with volume ratio of neighbour cells < 0.001     : 0
    faces with face twist < 0.002                          : 3
    faces on cells with determinant < 0.0001                : 0

Iteration 3
Moving mesh using displacement scaling : min:0.421875  max:1
Checking faces in error :
    non-orthogonality > 80  degrees                        : 0
    faces with face pyramid volume < 1e-30                 : 1
    faces with concavity > 80  degrees                     : 0
    faces with skewness > 4   (internal) or 20  (boundary) : 0
    faces with interpolation weights (0..1)  < 0.005       : 0
    faces with volume ratio of neighbour cells < 0.001     : 0
    faces with face twist < 0.002                          : 3
    faces on cells with determinant < 0.0001                : 0

Iteration 4
Moving mesh using displacement scaling : min:0.31640625  max:1
Checking faces in error :
    non-orthogonality > 80  degrees                        : 0
    faces with face pyramid volume < 1e-30                 : 1
    faces with concavity > 80  degrees                     : 0
    faces with skewness > 4   (internal) or 20  (boundary) : 0
    faces with interpolation weights (0..1)  < 0.005       : 0
    faces with volume ratio of neighbour cells < 0.001     : 0
    faces with face twist < 0.002                          : 3
    faces on cells with determinant < 0.0001                : 0

Iteration 5
Moving mesh using displacement scaling : min:0.237304688  max:1
Checking faces in error :
    non-orthogonality > 80  degrees                        : 0
    faces with face pyramid volume < 1e-30                 : 0
    faces with concavity > 80  degrees                     : 0
    faces with skewness > 4   (internal) or 20  (boundary) : 0
    faces with interpolation weights (0..1)  < 0.005       : 1
    faces with volume ratio of neighbour cells < 0.001     : 0
    faces with face twist < 0.002                          : 3
    faces on cells with determinant < 0.0001                : 0

Iteration 6
Moving mesh using displacement scaling : min:0.177978516  max:1
Checking faces in error :
    non-orthogonality > 80  degrees                        : 0
    faces with face pyramid volume < 1e-30                 : 0
    faces with concavity > 80  degrees                     : 0
    faces with skewness > 4   (internal) or 20  (boundary) : 0
    faces with interpolation weights (0..1)  < 0.005       : 1
    faces with volume ratio of neighbour cells < 0.001     : 0
    faces with face twist < 0.002                          : 3
    faces on cells with determinant < 0.0001                : 0

Iteration 7
Moving mesh using displacement scaling : min:0.133483887  max:1
Checking faces in error :
    non-orthogonality > 80  degrees                        : 0
    faces with face pyramid volume < 1e-30                 : 0
    faces with concavity > 80  degrees                     : 0
    faces with skewness > 4   (internal) or 20  (boundary) : 0
    faces with interpolation weights (0..1)  < 0.005       : 0
    faces with volume ratio of neighbour cells < 0.001     : 0
    faces with face twist < 0.002                          : 2
    faces on cells with determinant < 0.0001                : 0

Iteration 8
Displacement scaling for error reduction set to 0.
Moving mesh using displacement scaling : min:0.100112915  max:1
Checking faces in error :
    non-orthogonality > 80  degrees                        : 0
    faces with face pyramid volume < 1e-30                 : 0
    faces with concavity > 80  degrees                     : 0
    faces with skewness > 4   (internal) or 20  (boundary) : 0
    faces with interpolation weights (0..1)  < 0.005       : 0
    faces with volume ratio of neighbour cells < 0.001     : 0
    faces with face twist < 0.002                          : 2
    faces on cells with determinant < 0.0001                : 0

Iteration 9
Moving mesh using displacement scaling : min:0  max:1
Checking faces in error :
    non-orthogonality > 80  degrees                        : 0
    faces with face pyramid volume < 1e-30                 : 0
    faces with concavity > 80  degrees                     : 0
    faces with skewness > 4   (internal) or 20  (boundary) : 0
    faces with interpolation weights (0..1)  < 0.005       : 0
    faces with volume ratio of neighbour cells < 0.001     : 0
    faces with face twist < 0.002                          : 0
    faces on cells with determinant < 0.0001                : 0
Successfully moved mesh
Moved mesh in = 3.9 s



Morph iteration 8
-----------------
Calculating patchDisplacement as distance to nearest surface point ...
Wanted displacement : average:0.000263080755 min:5.62905704e-11 max:0.00451374808
Calculated surface displacement in = 0.17 s


Detecting near surfaces ...
Overriding nearest with intersection of close gaps at 51 out of 208970 points.
Overriding displacement on features :
   implicit features    : false
   explicit features    : true
   multi-patch features : true

Detected 3 baffle edges out of 413662 edges.
Initially selected 3970 points out of 208970 for reverse attraction.
Selected 13790 points out of 208970 for reverse attraction.
Removing constraints near multi-patch points : changed 7 points
Stringing feature edges : changed 280 points
Stringing feature edges : changed 12 points
Stringing feature edges : changed 1 points
Stringing feature edges : changed 0 points
Attraction:
     linear   : max:(-0.00451374808 0 0) avg:(-6.70904453e-07 5.05194386e-05 -1.31460597e-05)
     feature  : max:(0.00318511336 -0.0155920836 -0.015592001) avg:(-3.91528847e-06 1.10268039e-05 -1.04972922e-07)
Feature analysis : total master points:207692 attraction to :
    feature point   : 96
    feature edge    : 2612
    nearest surface : 0
    rest            : 204984

--> FOAM Warning : Displacement (0.00114199729 0.000512678034 0.000231136038) at mesh point 39495 coord (-0.134010493 0.736429238 0.00216338288) points through the surrounding patch faces
Smoothing displacement ...
Iteration 0
Iteration 10
Iteration 20
Iteration 30
Iteration 40
Iteration 50
Iteration 60
Iteration 70
Iteration 80
Iteration 90
Iteration 100
Iteration 110
Iteration 120
Iteration 130
Iteration 140
Iteration 150
Iteration 160
[...]
    faces with volume ratio of neighbour cells < 0.001     : 0
    faces with face twist < 0.002                          : 1
    faces on cells with determinant < 0.0001                : 0
displacementMedialAxis : Iteration 17
Moving mesh using displacement scaling : min:0.00751694682  max:1
Checking faces in error :
    non-orthogonality > 80  degrees                        : 0
    faces with face pyramid volume < 1e-30                 : 0
    faces with concavity > 80  degrees                     : 0
    faces with skewness > 4   (internal) or 20  (boundary) : 0
    faces with interpolation weights (0..1)  < 0.005       : 0
    faces with volume ratio of neighbour cells < 0.001     : 0
    faces with face twist < 0.002                          : 1
    faces on cells with determinant < 0.0001                : 0
displacementMedialAxis : Iteration 18
Moving mesh using displacement scaling : min:0.00563771011  max:1
Checking faces in error :
    non-orthogonality > 80  degrees                        : 0
    faces with face pyramid volume < 1e-30                 : 0
    faces with concavity > 80  degrees                     : 0
    faces with skewness > 4   (internal) or 20  (boundary) : 0
    faces with interpolation weights (0..1)  < 0.005       : 0
    faces with volume ratio of neighbour cells < 0.001     : 0
    faces with face twist < 0.002                          : 1
    faces on cells with determinant < 0.0001                : 0
displacementMedialAxis : Iteration 19
Moving mesh using displacement scaling : min:0.00422828259  max:1
Checking faces in error :
    non-orthogonality > 80  degrees                        : 0
    faces with face pyramid volume < 1e-30                 : 0
    faces with concavity > 80  degrees                     : 0
    faces with skewness > 4   (internal) or 20  (boundary) : 0
    faces with interpolation weights (0..1)  < 0.005       : 0
    faces with volume ratio of neighbour cells < 0.001     : 0
    faces with face twist < 0.002                          : 1
    faces on cells with determinant < 0.0001                : 0
displacementMedialAxis : Iteration 20
displacementMedialAxis : Displacement scaling for error reduction set to 0.
Moving mesh using displacement scaling : min:0.00317121194  max:1
Checking faces in error :
    non-orthogonality > 80  degrees                        : 0
    faces with face pyramid volume < 1e-30                 : 0
    faces with concavity > 80  degrees                     : 0
    faces with skewness > 4   (internal) or 20  (boundary) : 0
    faces with interpolation weights (0..1)  < 0.005       : 0
    faces with volume ratio of neighbour cells < 0.001     : 0
    faces with face twist < 0.002                          : 1
    faces on cells with determinant < 0.0001                : 0
displacementMedialAxis : Iteration 21
Moving mesh using displacement scaling : min:0  max:1
Checking faces in error :
    non-orthogonality > 80  degrees                        : 0
    faces with face pyramid volume < 1e-30                 : 0
    faces with concavity > 80  degrees                     : 0
    faces with skewness > 4   (internal) or 20  (boundary) : 0
    faces with interpolation weights (0..1)  < 0.005       : 0
    faces with volume ratio of neighbour cells < 0.001     : 0
    faces with face twist < 0.002                          : 0
    faces on cells with determinant < 0.0001                : 0
displacementMedialAxis : Successfully moved mesh
displacementMedialAxis : Finished moving mesh ...
truncateDisplacement : Unextruded 0 faces due to non-consecutive vertices being extruded.
truncateDisplacement : Unextruded 7 faces due to stringed edges with inconsistent extrusion.
truncateDisplacement : Unextruded 0 faces due to non-consecutive vertices being extruded.
truncateDisplacement : Unextruded 0 faces due to stringed edges with inconsistent extrusion.

Setting up information for layer truncation ...

Checking mesh with layer ...
Checking faces in error :
    non-orthogonality > 80  degrees                        : 1
    faces with face pyramid volume < 1e-30                 : 0
    faces with concavity > 80  degrees                     : 0
    faces with skewness > 4   (internal) or 20  (boundary) : 0
    faces with interpolation weights (0..1)  < 0.005       : 0
    faces with volume ratio of neighbour cells < 0.001     : 0
    faces with face twist < 0.002                          : 9
    faces on cells with determinant < 0.0001                : 0
Detected 10 illegal faces (concave, zero area or negative cell pyramid volume)
[0] Checked mesh with layers. Disabled extrusion at 
[0]     (-0.0172672609 1.22294323 0.551321427)
[0]     (-0.0183139918 1.22248966 0.555884675)
[0]     (-0.113087608 1.24108829 0.673249785)
[0]     (-0.109691075 1.23808199 0.673351387)
[0]     (0.0354942141 1.2098629 0.576793215)
[0]     (-0.155142338 0.957489767 0.409599916)
[1] Checked mesh with layers. Disabled extrusion at 
[1]     (0.127524712 1.23542539 0.658355118)
[1]     (0.219553363 1.17370128 0.420656812)
[3] Checked mesh with layers. Disabled extrusion at 
[3]     (-0.00685404283 1.19785497 1.21801456)
[3]     (0.00119400301 1.19434763 1.19463098)
Extruding 132502 out of 135424 faces (97.8423322%). Removed extrusion at 10 faces.
Added 520660 out of 541696 cells (96.1166411%).

Growing non-extrusion points by one layer ...
Set displacement to zero for an additional 1919 points.


Layer addition iteration 3
--------------------------

Determining displacement for added points according to pointNormal ...
Detected 0 points with point normal pointing through faces.
Reset displacement at 0 points to average of surrounding points.

displacementMedialAxis : Smoothing using Medial Axis ...
displacementMedialAxis : Reducing layer thickness at 0 nodes where thickness to medial axis distance is large 
displacementMedialAxis : Removing isolated regions ...
displacementMedialAxis : Number of isolated points extrusion stopped : 108
displacementMedialAxis : Smoothing field ...
    Iteration 0   residual 9.71257694e-06
displacementMedialAxis : Moving mesh ...
displacementMedialAxis : Iteration 0
Moving mesh using displacement scaling : min:1  max:1
Checking faces in error :
    non-orthogonality > 80  degrees                        : 0
    faces with face pyramid volume < 1e-30                 : 1
    faces with concavity > 80  degrees                     : 0
    faces with skewness > 4   (internal) or 20  (boundary) : 0
    faces with interpolation weights (0..1)  < 0.005       : 0
    faces with volume ratio of neighbour cells < 0.001     : 0
    faces with face twist < 0.002                          : 11
    faces on cells with determinant < 0.0001                : 0
displacementMedialAxis : Iteration 1
Moving mesh using displacement scaling : min:0.75  max:1
Checking faces in error :
    non-orthogonality > 80  degrees                        : 0
    faces with face pyramid volume < 1e-30                 : 0
    faces with concavity > 80  degrees                     : 0
    faces with skewness > 4   (internal) or 20  (boundary) : 0
    faces with interpolation weights (0..1)  < 0.005       : 0
    faces with volume ratio of neighbour cells < 0.001     : 0
    faces with face twist < 0.002                          : 6
    faces on cells with determinant < 0.0001                : 0
displacementMedialAxis : Iteration 2
Moving mesh using displacement scaling : min:0.5625  max:1
Checking faces in error :
    non-orthogonality > 80  degrees                        : 0
    faces with face pyramid volume < 1e-30                 : 0
    faces with concavity > 80  degrees                     : 0
    faces with skewness > 4   (internal) or 20  (boundary) : 0
    faces with interpolation weights (0..1)  < 0.005       : 0
    faces with volume ratio of neighbour cells < 0.001     : 0
    faces with face twist < 0.002                          : 3
    faces on cells with determinant < 0.0001                : 0
displacementMedialAxis : Iteration 3
Moving mesh using displacement scaling : min:0.421875  max:1
Checking faces in error :
    non-orthogonality > 80  degrees                        : 0
    faces with face pyramid volume < 1e-30                 : 0
    faces with concavity > 80  degrees                     : 0
    faces with skewness > 4   (internal) or 20  (boundary) : 0
    faces with interpolation weights (0..1)  < 0.005       : 0
    faces with volume ratio of neighbour cells < 0.001     : 0
    faces with face twist < 0.002                          : 1
    faces on cells with determinant < 0.0001                : 0
displacementMedialAxis : Iteration 4
Moving mesh using displacement scaling : min:0.31640625  max:1
Checking faces in error :
    non-orthogonality > 80  degrees                        : 0
    faces with face pyramid volume < 1e-30                 : 0
    faces with concavity > 80  degrees                     : 0
    faces with skewness > 4   (internal) or 20  (boundary) : 0
    faces with interpolation weights (0..1)  < 0.005       : 0
    faces with volume ratio of neighbour cells < 0.001     : 0
    faces with face twist < 0.002                          : 1
    faces on cells with determinant < 0.0001                : 0
displacementMedialAxis : Iteration 5
Moving mesh using displacement scaling : min:0.31640625  max:1
Checking faces in error :
    non-orthogonality > 80  degrees                        : 0
    faces with face pyramid volume < 1e-30                 : 0
    faces with concavity > 80  degrees                     : 0
    faces with skewness > 4   (internal) or 20  (boundary) : 0
    faces with interpolation weights (0..1)  < 0.005       : 0
    faces with volume ratio of neighbour cells < 0.001     : 0
    faces with face twist < 0.002                          : 0
    faces on cells with determinant < 0.0001                : 0
displacementMedialAxis : Successfully moved mesh
displacementMedialAxis : Finished moving mesh ...
truncateDisplacement : Unextruded 0 faces due to non-consecutive vertices being extruded.
truncateDisplacement : Unextruded 5 faces due to stringed edges with inconsistent extrusion.
truncateDisplacement : Unextruded 0 faces due to non-consecutive vertices being extruded.
truncateDisplacement : Unextruded 0 faces due to stringed edges with inconsistent extrusion.

Setting up information for layer truncation ...

Checking mesh with layer ...
Checking faces in error :
    non-orthogonality > 80  degrees                        : 0
    faces with face pyramid volume < 1e-30                 : 0
    faces with concavity > 80  degrees                     : 2
    faces with skewness > 4   (internal) or 20  (boundary) : 0
    faces with interpolation weights (0..1)  < 0.005       : 0
    faces with volume ratio of neighbour cells < 0.001     : 0
    faces with face twist < 0.002                          : 8
    faces on cells with determinant < 0.0001                : 0
Detected 10 illegal faces (concave, zero area or negative cell pyramid volume)
[1] Checked mesh with layers. Disabled extrusion at 
[1]     (0.117634308 1.24057009 0.67328598)
[1]     (0.113241651 1.23672711 0.673232367)
[1]     (0.10957788 1.2340142 0.672944291)
[0] Checked mesh with layers. Disabled extrusion at 
[2] Checked mesh with layers. Disabled extrusion at 
[2]     (-0.140609001 1.34273401 0.98115059)
[2]     (-0.138642898 1.33631087 0.982458322)
[0]     (-0.0802786631 1.22027436 0.644342929)
[0]     (-0.0685608422 1.21429315 0.648043825)
[0]     (-0.0640162507 1.21239349 0.648028808)
[0]     (-0.0821693204 0.987069498 0.433002003)
Extruding 130936 out of 135424 faces (96.6859641%). Removed extrusion at 9 faces.
Added 513505 out of 541696 cells (94.7957895%).

Growing non-extrusion points by one layer ...
Set displacement to zero for an additional 2107 points.


Layer addition iteration 4
--------------------------
Switched to relaxed meshQuality constraints.

Determining displacement for added points according to pointNormal ...
Detected 0 points with point normal pointing through faces.
Reset displacement at 0 points to average of surrounding points.

displacementMedialAxis : Smoothing using Medial Axis ...
displacementMedialAxis : Reducing layer thickness at 0 nodes where thickness to medial axis distance is large 
displacementMedialAxis : Removing isolated regions ...
displacementMedialAxis : Number of isolated points extrusion stopped : 122
displacementMedialAxis : Smoothing field ...
    Iteration 0   residual 1.06590466e-05
displacementMedialAxis : Moving mesh ...
displacementMedialAxis : Iteration 0
Moving mesh using displacement scaling : min:1  max:1
Checking faces in error :
    non-orthogonality > 80  degrees                        : 0
    faces with face pyramid volume < 1e-60                 : 1
    faces with concavity > 80  degrees                     : 0
    faces with skewness > 10  (internal) or 20  (boundary) : 0
    faces with interpolation weights (0..1)  < 0           : 0
    faces with volume ratio of neighbour cells < 0         : 0
    faces on cells with determinant < 0                    : 0
displacementMedialAxis : Iteration 1
Moving mesh using displacement scaling : min:0.75  max:1
Checking faces in error :
    non-orthogonality > 80  degrees                        : 0
    faces with face pyramid volume < 1e-60                 : 1
    faces with concavity > 80  degrees                     : 0
    faces with skewness > 10  (internal) or 20  (boundary) : 0
    faces with interpolation weights (0..1)  < 0           : 0
    faces with volume ratio of neighbour cells < 0         : 0
    faces on cells with determinant < 0                    : 0
displacementMedialAxis : Iteration 2
Moving mesh using displacement scaling : min:0.5625  max:1
Checking faces in error :
    non-orthogonality > 80  degrees                        : 0
    faces with face pyramid volume < 1e-60                 : 0
    faces with concavity > 80  degrees                     : 0
    faces with skewness > 10  (internal) or 20  (boundary) : 0
    faces with interpolation weights (0..1)  < 0           : 0
    faces with volume ratio of neighbour cells < 0         : 0
    faces on cells with determinant < 0                    : 0
displacementMedialAxis : Successfully moved mesh
displacementMedialAxis : Finished moving mesh ...
truncateDisplacement : Unextruded 2 faces due to non-consecutive vertices being extruded.
truncateDisplacement : Unextruded 8 faces due to stringed edges with inconsistent extrusion.
truncateDisplacement : Unextruded 0 faces due to non-consecutive vertices being extruded.
truncateDisplacement : Unextruded 0 faces due to stringed edges with inconsistent extrusion.

Setting up information for layer truncation ...

Checking mesh with layer ...
Checking faces in error :
    non-orthogonality > 80  degrees                        : 2
    faces with face pyramid volume < 1e-60                 : 0
    faces with concavity > 80  degrees                     : 0
    faces with skewness > 10  (internal) or 20  (boundary) : 0
    faces with interpolation weights (0..1)  < 0           : 0
    faces with volume ratio of neighbour cells < 0         : 0
    faces on cells with determinant < 0                    : 0
Detected 2 illegal faces (concave, zero area or negative cell pyramid volume)
[2] Checked mesh with layers. Disabled extrusion at 
[2]     (0.151376524 1.3281022 0.976569713)
[2]     (0.151290477 1.32538923 0.977350714)
[3] Checked mesh with layers. Disabled extrusion at 
[3]     (0.0066939753 1.19276706 1.19145347)
Extruding 129197 out of 135424 faces (95.401849%). Removed extrusion at 3 faces.
Added 505551 out of 541696 cells (93.3274383%).

Growing non-extrusion points by one layer ...
Set displacement to zero for an additional 2305 points.


Layer addition iteration 5
--------------------------
Switched to relaxed meshQuality constraints.

Determining displacement for added points according to pointNormal ...
Detected 0 points with point normal pointing through faces.
Reset displacement at 0 points to average of surrounding points.

displacementMedialAxis : Smoothing using Medial Axis ...
displacementMedialAxis : Reducing layer thickness at 0 nodes where thickness to medial axis distance is large 
displacementMedialAxis : Removing isolated regions ...
displacementMedialAxis : Number of isolated points extrusion stopped : 107
displacementMedialAxis : Smoothing field ...
    Iteration 0   residual 1.11661033e-05
displacementMedialAxis : Moving mesh ...
displacementMedialAxis : Iteration 0
Moving mesh using displacement scaling : min:1  max:1
Checking faces in error :
    non-orthogonality > 80  degrees                        : 0
    faces with face pyramid volume < 1e-60                 : 0
    faces with concavity > 80  degrees                     : 0
    faces with skewness > 10  (internal) or 20  (boundary) : 0
    faces with interpolation weights (0..1)  < 0           : 0
    faces with volume ratio of neighbour cells < 0         : 0
    faces on cells with determinant < 0                    : 0
displacementMedialAxis : Successfully moved mesh
displacementMedialAxis : Finished moving mesh ...
truncateDisplacement : Unextruded 0 faces due to non-consecutive vertices being extruded.
truncateDisplacement : Unextruded 4 faces due to stringed edges with inconsistent extrusion.
truncateDisplacement : Unextruded 0 faces due to non-consecutive vertices being extruded.
truncateDisplacement : Unextruded 0 faces due to stringed edges with inconsistent extrusion.

Setting up information for layer truncation ...

Checking mesh with layer ...
Checking faces in error :
    non-orthogonality > 80  degrees                        : 0
    faces with face pyramid volume < 1e-60                 : 0
    faces with concavity > 80  degrees                     : 0
    faces with skewness > 10  (internal) or 20  (boundary) : 0
    faces with interpolation weights (0..1)  < 0           : 0
    faces with volume ratio of neighbour cells < 0         : 0
    faces on cells with determinant < 0                    : 0
Detected 0 illegal faces (concave, zero area or negative cell pyramid volume)
Extruding 127291 out of 135424 faces (93.9944175%). Removed extrusion at 0 faces.
Added 497081 out of 541696 cells (91.7638306%).
Edge intersection testing:
    Number of edges             : 3317342
    Number of edges to retest   : 0
    Number of intersected edges : 635241

Doing final balancing
---------------------


patch        faces    layers   overall thickness
                               [m]       [%]
-----        -----    ------   ---       ---
room_SIDE2   5846     3.94     0.0233    98.1    
room_FLOOR   4562     3        0.0148    74.5    
room_CEILING 2846     3.65     0.0222    91.8    
room_BACK    10238    3.92     0.0123    98.2    
room_SIDE1   5846     3.94     0.0233    98.3    
room_OUTLET2 172      4        0.0125    100     
room_OUTLET1 172      4        0.0125    100     
manikin      105742   3.65     0.00247   91.1    

Layer mesh : cells:1025981  faces:3317342  points:1288516
Cells per refinement level:
    0	16501
    1	114904
    2	92425
    3	71394
    4	547744
    5	183013
Writing mesh to time constant
Wrote mesh in = 62.22 s.
Layers added in = 62.22 s.
Checking final mesh ...
Checking faces in error :
    non-orthogonality > 80  degrees                        : 0
    faces with face pyramid volume < 1e-30                 : 0
    faces with concavity > 80  degrees                     : 0
    faces with skewness > 4   (internal) or 20  (boundary) : 0
    faces with interpolation weights (0..1)  < 0.005       : 0
    faces with volume ratio of neighbour cells < 0.001     : 0
    faces with face twist < 0.002                          : 16
    faces on cells with determinant < 0.0001                : 0
Finished meshing with 16 illegal faces (concave, zero area or negative cell pyramid volume)
Finished meshing in = 429.25 s.
End

Finalising parallel run
