/*---------------------------------------------------------------------------*\
| =========                 |                                                 |
| \\      /  F ield         | OpenFOAM: The Open Source CFD Toolbox           |
|  \\    /   O peration     | Version:  2.3.1                                 |
|   \\  /    A nd           | Web:      www.OpenFOAM.org                      |
|    \\/     M anipulation  |                                                 |
\*---------------------------------------------------------------------------*/
Build  : 2.3.1-bcfaaa7b8660
Exec   : radiationFoam -parallel
Date   : Apr 18 2017
Time   : 15:02:45
Host   : "ubuntu"
PID    : 10094
Case   : /home/cong/Desktop/AIVC/Case1
nProcs : 4
Slaves : 
3
(
"ubuntu.10095"
"ubuntu.10096"
"ubuntu.10097"
)

Pstream initialized with:
    floatTransfer      : 0
    nProcsSimpleSum    : 0
    commsType          : nonBlocking
    polling iterations : 0
sigFpe : Enabling floating point exception trapping (FOAM_SIGFPE).
fileModificationChecking : Monitoring run-time modified files using timeStampMaster
allowSystemOperations : Allowing user-supplied system call operations

// * * * * * * * * * * * * * * * * * * * * * * * * * * * * * * * * * * * * * //
Create time

Create mesh for time = 4000


Reading g
Reading thermophysical properties

Selecting thermodynamics package 
{
    type            heRhoThermo;
    mixture         pureMixture;
    transport       const;
    thermo          hConst;
    equationOfState perfectGas;
    specie          specie;
    energy          sensibleEnthalpy;
}

Reading field U

Reading/calculating face flux field phi

Creating turbulence model

Selecting RAS turbulence model kEpsilon
kEpsilonCoeffs
{
    Cmu             0.09;
    C1              1.44;
    C2              1.92;
    C3              -0.33;
    sigmak          1;
    sigmaEps        1.3;
    Prt             1;
}

Calculating field g.h

Reading field p_rgh

No finite volume options present

Selecting radiationModel fvDOM
Selecting absorptionEmissionModel none
Selecting scatterModel none
Selecting sootModel none
fvDOM : Allocated 240 rays with average orientation:
	I0 : omega : 	0.0128133741
	I1 : omega : 	0.0128133741
	I2 : omega : 	0.0128133741
	I3 : omega : 	0.0128133741
	I4 : omega : 	0.0128133741
	I5 : omega : 	0.0128133741
	I6 : omega : 	0.0128133741
	I7 : omega : 	0.0128133741
	I8 : omega : 	0.0128133741
	I9 : omega : 	0.0128133741
	I10 : omega : 	0.0128133741
	I11 : omega : 	0.0128133741
	I12 : omega : 	0.0128133741
	I13 : omega : 	0.0128133741
	I14 : omega : 	0.0128133741
	I15 : omega : 	0.0128133741
	I16 : omega : 	0.0128133741
	I17 : omega : 	0.0128133741
	I18 : omega : 	0.0128133741
	I19 : omega : 	0.0128133741
	I20 : omega : 	0.0128133741
	I21 : omega : 	0.0128133741
	I22 : omega : 	0.0128133741
	I23 : omega : 	0.0128133741
	I24 : omega : 	0.0371858599
	I25 : omega : 	0.0371858599
	I26 : omega : 	0.0371858599
	I27 : omega : 	0.0371858599
	I28 : omega : 	0.0371858599
	I29 : omega : 	0.0371858599
	I30 : omega : 	0.0371858599
	I31 : omega : 	0.0371858599
	I32 : omega : 	0.0371858599
	I33 : omega : 	0.0371858599
	I34 : omega : 	0.0371858599
	I35 : omega : 	0.0371858599
	I36 : omega : 	0.0371858599
	I37 : omega : 	0.0371858599
	I38 : omega : 	0.0371858599
	I39 : omega : 	0.0371858599
	I40 : omega : 	0.0371858599
	I41 : omega : 	0.0371858599
	I42 : omega : 	0.0371858599
	I43 : omega : 	0.0371858599
	I44 : omega : 	0.0371858599
	I45 : omega : 	0.0371858599
	I46 : omega : 	0.0371858599
	I47 : omega : 	0.0371858599
	I48 : omega : 	0.0579183346
	I49 : omega : 	0.0579183346
	I50 : omega : 	0.0579183346
	I51 : omega : 	0.0579183346
	I52 : omega : 	0.0579183346
	I53 : omega : 	0.0579183346
	I54 : omega : 	0.0579183346
	I55 : omega : 	0.0579183346
	I56 : omega : 	0.0579183346
	I57 : omega : 	0.0579183346
	I58 : omega : 	0.0579183346
	I59 : omega : 	0.0579183346
	I60 : omega : 	0.0579183346
	I61 : omega : 	0.0579183346
	I62 : omega : 	0.0579183346
	I63 : omega : 	0.0579183346
	I64 : omega : 	0.0579183346
	I65 : omega : 	0.0579183346
	I66 : omega : 	0.0579183346
	I67 : omega : 	0.0579183346
	I68 : omega : 	0.0579183346
	I69 : omega : 	0.0579183346
	I70 : omega : 	0.0579183346
	I71 : omega : 	0.0579183346
	I72 : omega : 	0.0729813593
	I73 : omega : 	0.0729813593
	I74 : omega : 	0.0729813593
	I75 : omega : 	0.0729813593
	I76 : omega : 	0.0729813593
	I77 : omega : 	0.0729813593
	I78 : omega : 	0.0729813593
	I79 : omega : 	0.0729813593
	I80 : omega : 	0.0729813593
	I81 : omega : 	0.0729813593
	I82 : omega : 	0.0729813593
	I83 : omega : 	0.0729813593
	I84 : omega : 	0.0729813593
	I85 : omega : 	0.0729813593
	I86 : omega : 	0.0729813593
	I87 : omega : 	0.0729813593
	I88 : omega : 	0.0729813593
	I89 : omega : 	0.0729813593
	I90 : omega : 	0.0729813593
	I91 : omega : 	0.0729813593
	I92 : omega : 	0.0729813593
	I93 : omega : 	0.0729813593
	I94 : omega : 	0.0729813593
	I95 : omega : 	0.0729813593
	I96 : omega : 	0.0809004599
	I97 : omega : 	0.0809004599
	I98 : omega : 	0.0809004599
	I99 : omega : 	0.0809004599
	I100 : omega : 	0.0809004599
	I101 : omega : 	0.0809004599
	I102 : omega : 	0.0809004599
	I103 : omega : 	0.0809004599
	I104 : omega : 	0.0809004599
	I105 : omega : 	0.0809004599
	I106 : omega : 	0.0809004599
	I107 : omega : 	0.0809004599
	I108 : omega : 	0.0809004599
	I109 : omega : 	0.0809004599
	I110 : omega : 	0.0809004599
	I111 : omega : 	0.0809004599
	I112 : omega : 	0.0809004599
	I113 : omega : 	0.0809004599
	I114 : omega : 	0.0809004599
	I115 : omega : 	0.0809004599
	I116 : omega : 	0.0809004599
	I117 : omega : 	0.0809004599
	I118 : omega : 	0.0809004599
	I119 : omega : 	0.0809004599
	I120 : omega : 	0.0809004599
	I121 : omega : 	0.0809004599
	I122 : omega : 	0.0809004599
	I123 : omega : 	0.0809004599
	I124 : omega : 	0.0809004599
	I125 : omega : 	0.0809004599
	I126 : omega : 	0.0809004599
	I127 : omega : 	0.0809004599
	I128 : omega : 	0.0809004599
	I129 : omega : 	0.0809004599
	I130 : omega : 	0.0809004599
	I131 : omega : 	0.0809004599
	I132 : omega : 	0.0809004599
	I133 : omega : 	0.0809004599
	I134 : omega : 	0.0809004599
	I135 : omega : 	0.0809004599
	I136 : omega : 	0.0809004599
	I137 : omega : 	0.0809004599
	I138 : omega : 	0.0809004599
	I139 : omega : 	0.0809004599
	I140 : omega : 	0.0809004599
	I141 : omega : 	0.0809004599
	I142 : omega : 	0.0809004599
	I143 : omega : 	0.0809004599
	I144 : omega : 	0.0729813593
	I145 : omega : 	0.0729813593
	I146 : omega : 	0.0729813593
	I147 : omega : 	0.0729813593
	I148 : omega : 	0.0729813593
	I149 : omega : 	0.0729813593
	I150 : omega : 	0.0729813593
	I151 : omega : 	0.0729813593
	I152 : omega : 	0.0729813593
	I153 : omega : 	0.0729813593
	I154 : omega : 	0.0729813593
	I155 : omega : 	0.0729813593
	I156 : omega : 	0.0729813593
	I157 : omega : 	0.0729813593
	I158 : omega : 	0.0729813593
	I159 : omega : 	0.0729813593
	I160 : omega : 	0.0729813593
	I161 : omega : 	0.0729813593
	I162 : omega : 	0.0729813593
	I163 : omega : 	0.0729813593
	I164 : omega : 	0.0729813593
	I165 : omega : 	0.0729813593
	I166 : omega : 	0.0729813593
	I167 : omega : 	0.0729813593
	I168 : omega : 	0.0579183346
	I169 : omega : 	0.0579183346
	I170 : omega : 	0.0579183346
	I171 : omega : 	0.0579183346
	I172 : omega : 	0.0579183346
	I173 : omega : 	0.0579183346
	I174 : omega : 	0.0579183346
	I175 : omega : 	0.0579183346
	I176 : omega : 	0.0579183346
	I177 : omega : 	0.0579183346
	I178 : omega : 	0.0579183346
	I179 : omega : 	0.0579183346
	I180 : omega : 	0.0579183346
	I181 : omega : 	0.0579183346
	I182 : omega : 	0.0579183346
	I183 : omega : 	0.0579183346
	I184 : omega : 	0.0579183346
	I185 : omega : 	0.0579183346
	I186 : omega : 	0.0579183346
	I187 : omega : 	0.0579183346
	I188 : omega : 	0.0579183346
	I189 : omega : 	0.0579183346
	I190 : omega : 	0.0579183346
	I191 : omega : 	0.0579183346
	I192 : omega : 	0.0371858599
	I193 : omega : 	0.0371858599
	I194 : omega : 	0.0371858599
	I195 : omega : 	0.0371858599
	I196 : omega : 	0.0371858599
	I197 : omega : 	0.0371858599
	I198 : omega : 	0.0371858599
	I199 : omega : 	0.0371858599
	I200 : omega : 	0.0371858599
	I201 : omega : 	0.0371858599
	I202 : omega : 	0.0371858599
	I203 : omega : 	0.0371858599
	I204 : omega : 	0.0371858599
	I205 : omega : 	0.0371858599
	I206 : omega : 	0.0371858599
	I207 : omega : 	0.0371858599
	I208 : omega : 	0.0371858599
	I209 : omega : 	0.0371858599
	I210 : omega : 	0.0371858599
	I211 : omega : 	0.0371858599
	I212 : omega : 	0.0371858599
	I213 : omega : 	0.0371858599
	I214 : omega : 	0.0371858599
	I215 : omega : 	0.0371858599
	I216 : omega : 	0.0128133741
	I217 : omega : 	0.0128133741
	I218 : omega : 	0.0128133741
	I219 : omega : 	0.0128133741
	I220 : omega : 	0.0128133741
	I221 : omega : 	0.0128133741
	I222 : omega : 	0.0128133741
	I223 : omega : 	0.0128133741
	I224 : omega : 	0.0128133741
	I225 : omega : 	0.0128133741
	I226 : omega : 	0.0128133741
	I227 : omega : 	0.0128133741
	I228 : omega : 	0.0128133741
	I229 : omega : 	0.0128133741
	I230 : omega : 	0.0128133741
	I231 : omega : 	0.0128133741
	I232 : omega : 	0.0128133741
	I233 : omega : 	0.0128133741
	I234 : omega : 	0.0128133741
	I235 : omega : 	0.0128133741
	I236 : omega : 	0.0128133741
	I237 : omega : 	0.0128133741
	I238 : omega : 	0.0128133741
	I239 : omega : 	0.0128133741


SIMPLE: convergence criteria
    field "(p_rgh|p)"	 tolerance 1e-07
    field U	 tolerance 1e-08
    field h	 tolerance 1e-08
    field "(k|epsilon|omega)"	 tolerance 1e-08


Starting time loop

Time = 4001

Radiation solver iter: 0
GAMG:  Solving for ILambda_0_0, Initial residual = 1, Final residual = 4.10800458e-05, No Iterations 5
GAMG:  Solving for ILambda_1_0, Initial residual = 1, Final residual = 7.97654309e-05, No Iterations 4
GAMG:  Solving for ILambda_2_0, Initial residual = 1, Final residual = 6.10483686e-05, No Iterations 4
GAMG:  Solving for ILambda_3_0, Initial residual = 1, Final residual = 5.23758667e-05, No Iterations 4
GAMG:  Solving for ILambda_4_0, Initial residual = 1, Final residual = 5.41208423e-05, No Iterations 4
GAMG:  Solving for ILambda_5_0, Initial residual = 1, Final residual = 8.06548178e-05, No Iterations 4
GAMG:  Solving for ILambda_6_0, Initial residual = 1, Final residual = 7.04303763e-05, No Iterations 4
GAMG:  Solving for ILambda_7_0, Initial residual = 1, Final residual = 3.81818169e-05, No Iterations 4
GAMG:  Solving for ILambda_8_0, Initial residual = 1, Final residual = 2.83322295e-05, No Iterations 4
GAMG:  Solving for ILambda_9_0, Initial residual = 1, Final residual = 2.6678316e-05, No Iterations 4
GAMG:  Solving for ILambda_10_0, Initial residual = 1, Final residual = 3.94059493e-05, No Iterations 4
GAMG:  Solving for ILambda_11_0, Initial residual = 1, Final residual = 8.68692673e-05, No Iterations 4
GAMG:  Solving for ILambda_12_0, Initial residual = 1, Final residual = 7.94131442e-05, No Iterations 4
GAMG:  Solving for ILambda_13_0, Initial residual = 1, Final residual = 3.8846688e-05, No Iterations 4
GAMG:  Solving for ILambda_14_0, Initial residual = 1, Final residual = 2.97243953e-05, No Iterations 4
GAMG:  Solving for ILambda_15_0, Initial residual = 1, Final residual = 2.90970211e-05, No Iterations 4
GAMG:  Solving for ILambda_16_0, Initial residual = 1, Final residual = 3.99868291e-05, No Iterations 4
GAMG:  Solving for ILambda_17_0, Initial residual = 1, Final residual = 8.87827732e-05, No Iterations 4
GAMG:  Solving for ILambda_18_0, Initial residual = 1, Final residual = 9.10895898e-05, No Iterations 4
GAMG:  Solving for ILambda_19_0, Initial residual = 1, Final residual = 5.65286918e-05, No Iterations 4
GAMG:  Solving for ILambda_20_0, Initial residual = 1, Final residual = 5.30348208e-05, No Iterations 4
GAMG:  Solving for ILambda_21_0, Initial residual = 1, Final residual = 6.08065323e-05, No Iterations 4
GAMG:  Solving for ILambda_22_0, Initial residual = 1, Final residual = 7.82052155e-05, No Iterations 4
GAMG:  Solving for ILambda_23_0, Initial residual = 1, Final residual = 4.30793396e-05, No Iterations 5
GAMG:  Solving for ILambda_24_0, Initial residual = 1, Final residual = 3.22482474e-05, No Iterations 5
GAMG:  Solving for ILambda_25_0, Initial residual = 1, Final residual = 6.41668554e-05, No Iterations 4
GAMG:  Solving for ILambda_26_0, Initial residual = 1, Final residual = 4.58090917e-05, No Iterations 4
GAMG:  Solving for ILambda_27_0, Initial residual = 1, Final residual = 3.0372246e-05, No Iterations 4
GAMG:  Solving for ILambda_28_0, Initial residual = 1, Final residual = 2.23080252e-05, No Iterations 4
GAMG:  Solving for ILambda_29_0, Initial residual = 1, Final residual = 3.08912933e-05, No Iterations 4
GAMG:  Solving for ILambda_30_0, Initial residual = 1, Final residual = 2.96361466e-05, No Iterations 4
GAMG:  Solving for ILambda_31_0, Initial residual = 1, Final residual = 1.41991074e-05, No Iterations 4
GAMG:  Solving for ILambda_32_0, Initial residual = 1, Final residual = 9.07499886e-05, No Iterations 3
GAMG:  Solving for ILambda_33_0, Initial residual = 1, Final residual = 1.28761537e-05, No Iterations 4
GAMG:  Solving for ILambda_34_0, Initial residual = 1, Final residual = 2.18650206e-05, No Iterations 4
GAMG:  Solving for ILambda_35_0, Initial residual = 1, Final residual = 8.9411166e-05, No Iterations 4
GAMG:  Solving for ILambda_36_0, Initial residual = 1, Final residual = 8.88504028e-05, No Iterations 4
GAMG:  Solving for ILambda_37_0, Initial residual = 1, Final residual = 2.57732813e-05, No Iterations 4
GAMG:  Solving for ILambda_38_0, Initial residual = 1, Final residual = 1.60427115e-05, No Iterations 4
GAMG:  Solving for ILambda_39_0, Initial residual = 1, Final residual = 1.42992172e-05, No Iterations 4
GAMG:  Solving for ILambda_40_0, Initial residual = 1, Final residual = 1.53679386e-05, No Iterations 4
GAMG:  Solving for ILambda_41_0, Initial residual = 1, Final residual = 3.80935012e-05, No Iterations 4
GAMG:  Solving for ILambda_42_0, Initial residual = 1, Final residual = 4.18109357e-05, No Iterations 4
GAMG:  Solving for ILambda_43_0, Initial residual = 1, Final residual = 2.61237979e-05, No Iterations 4
GAMG:  Solving for ILambda_44_0, Initial residual = 1, Final residual = 3.5434118e-05, No Iterations 4
GAMG:  Solving for ILambda_45_0, Initial residual = 1, Final residual = 5.21341359e-05, No Iterations 4
GAMG:  Solving for ILambda_46_0, Initial residual = 1, Final residual = 8.04445358e-05, No Iterations 4
GAMG:  Solving for ILambda_47_0, Initial residual = 1, Final residual = 3.38299772e-05, No Iterations 5
GAMG:  Solving for ILambda_48_0, Initial residual = 1, Final residual = 7.20218645e-05, No Iterations 4
GAMG:  Solving for ILambda_49_0, Initial residual = 1, Final residual = 3.83476144e-05, No Iterations 4
GAMG:  Solving for ILambda_50_0, Initial residual = 1, Final residual = 2.47411672e-05, No Iterations 4
GAMG:  Solving for ILambda_51_0, Initial residual = 1, Final residual = 2.25026171e-05, No Iterations 4
GAMG:  Solving for ILambda_52_0, Initial residual = 1, Final residual = 1.80581977e-05, No Iterations 4
GAMG:  Solving for ILambda_53_0, Initial residual = 1, Final residual = 2.0381153e-05, No Iterations 4
GAMG:  Solving for ILambda_54_0, Initial residual = 1, Final residual = 1.97496451e-05, No Iterations 4
GAMG:  Solving for ILambda_55_0, Initial residual = 1, Final residual = 7.76511241e-05, No Iterations 3
GAMG:  Solving for ILambda_56_0, Initial residual = 1, Final residual = 7.25212859e-05, No Iterations 3
GAMG:  Solving for ILambda_57_0, Initial residual = 1, Final residual = 9.63135324e-05, No Iterations 3
GAMG:  Solving for ILambda_58_0, Initial residual = 1, Final residual = 1.56133329e-05, No Iterations 4
GAMG:  Solving for ILambda_59_0, Initial residual = 1, Final residual = 3.96218926e-05, No Iterations 4
GAMG:  Solving for ILambda_60_0, Initial residual = 1, Final residual = 4.30491139e-05, No Iterations 4
GAMG:  Solving for ILambda_61_0, Initial residual = 1, Final residual = 1.91385137e-05, No Iterations 4
GAMG:  Solving for ILambda_62_0, Initial residual = 1, Final residual = 1.32289251e-05, No Iterations 4
GAMG:  Solving for ILambda_63_0, Initial residual = 1, Final residual = 8.47801903e-05, No Iterations 3
GAMG:  Solving for ILambda_64_0, Initial residual = 1, Final residual = 9.2288313e-05, No Iterations 3
GAMG:  Solving for ILambda_65_0, Initial residual = 1, Final residual = 2.35509871e-05, No Iterations 4
GAMG:  Solving for ILambda_66_0, Initial residual = 1, Final residual = 2.52196991e-05, No Iterations 4
GAMG:  Solving for ILambda_67_0, Initial residual = 1, Final residual = 2.28606157e-05, No Iterations 4
GAMG:  Solving for ILambda_68_0, Initial residual = 1, Final residual = 2.73915288e-05, No Iterations 4
GAMG:  Solving for ILambda_69_0, Initial residual = 1, Final residual = 3.07003887e-05, No Iterations 4
GAMG:  Solving for ILambda_70_0, Initial residual = 1, Final residual = 4.84071096e-05, No Iterations 4
GAMG:  Solving for ILambda_71_0, Initial residual = 1, Final residual = 7.79694575e-05, No Iterations 4
GAMG:  Solving for ILambda_72_0, Initial residual = 1, Final residual = 4.92655077e-05, No Iterations 4
GAMG:  Solving for ILambda_73_0, Initial residual = 1, Final residual = 2.35041215e-05, No Iterations 4
GAMG:  Solving for ILambda_74_0, Initial residual = 1, Final residual = 1.94283987e-05, No Iterations 4
GAMG:  Solving for ILambda_75_0, Initial residual = 1, Final residual = 1.94284424e-05, No Iterations 4
GAMG:  Solving for ILambda_76_0, Initial residual = 1, Final residual = 1.73275304e-05, No Iterations 4
GAMG:  Solving for ILambda_77_0, Initial residual = 1, Final residual = 1.58899756e-05, No Iterations 4
GAMG:  Solving for ILambda_78_0, Initial residual = 1, Final residual = 9.43912846e-05, No Iterations 3
GAMG:  Solving for ILambda_79_0, Initial residual = 1, Final residual = 7.51963559e-05, No Iterations 3
GAMG:  Solving for ILambda_80_0, Initial residual = 1, Final residual = 7.59799355e-05, No Iterations 3
GAMG:  Solving for ILambda_81_0, Initial residual = 1, Final residual = 9.41625233e-05, No Iterations 3
GAMG:  Solving for ILambda_82_0, Initial residual = 1, Final residual = 1.56568774e-05, No Iterations 4
GAMG:  Solving for ILambda_83_0, Initial residual = 1, Final residual = 1.92518654e-05, No Iterations 4
GAMG:  Solving for ILambda_84_0, Initial residual = 1, Final residual = 2.2223632e-05, No Iterations 4
GAMG:  Solving for ILambda_85_0, Initial residual = 1, Final residual = 1.64781801e-05, No Iterations 4
GAMG:  Solving for ILambda_86_0, Initial residual = 1, Final residual = 1.28862329e-05, No Iterations 4
GAMG:  Solving for ILambda_87_0, Initial residual = 1, Final residual = 8.43717151e-05, No Iterations 3
GAMG:  Solving for ILambda_88_0, Initial residual = 1, Final residual = 9.11273104e-05, No Iterations 3
GAMG:  Solving for ILambda_89_0, Initial residual = 1, Final residual = 1.5018499e-05, No Iterations 4
GAMG:  Solving for ILambda_90_0, Initial residual = 1, Final residual = 1.98688975e-05, No Iterations 4
GAMG:  Solving for ILambda_91_0, Initial residual = 1, Final residual = 2.03620377e-05, No Iterations 4
GAMG:  Solving for ILambda_92_0, Initial residual = 1, Final residual = 2.42348981e-05, No Iterations 4
GAMG:  Solving for ILambda_93_0, Initial residual = 1, Final residual = 2.65022494e-05, No Iterations 4
GAMG:  Solving for ILambda_94_0, Initial residual = 1, Final residual = 3.19163741e-05, No Iterations 4
GAMG:  Solving for ILambda_95_0, Initial residual = 1, Final residual = 5.45056237e-05, No Iterations 4
GAMG:  Solving for ILambda_96_0, Initial residual = 1, Final residual = 3.78952503e-05, No Iterations 4
GAMG:  Solving for ILambda_97_0, Initial residual = 1, Final residual = 2.63328799e-05, No Iterations 4
GAMG:  Solving for ILambda_98_0, Initial residual = 1, Final residual = 2.64706206e-05, No Iterations 4
GAMG:  Solving for ILambda_99_0, Initial residual = 1, Final residual = 2.84926761e-05, No Iterations 4
GAMG:  Solving for ILambda_100_0, Initial residual = 1, Final residual = 2.44019861e-05, No Iterations 4
GAMG:  Solving for ILambda_101_0, Initial residual = 1, Final residual = 2.02583533e-05, No Iterations 4
GAMG:  Solving for ILambda_102_0, Initial residual = 1, Final residual = 1.90157598e-05, No Iterations 4
GAMG:  Solving for ILambda_103_0, Initial residual = 1, Final residual = 2.22298372e-05, No Iterations 4
GAMG:  Solving for ILambda_104_0, Initial residual = 1, Final residual = 2.86625159e-05, No Iterations 4
GAMG:  Solving for ILambda_105_0, Initial residual = 1, Final residual = 3.41906473e-05, No Iterations 4
GAMG:  Solving for ILambda_106_0, Initial residual = 1, Final residual = 3.81568852e-05, No Iterations 4
GAMG:  Solving for ILambda_107_0, Initial residual = 1, Final residual = 2.63384956e-05, No Iterations 4
GAMG:  Solving for ILambda_108_0, Initial residual = 1, Final residual = 2.38020942e-05, No Iterations 4
GAMG:  Solving for ILambda_109_0, Initial residual = 1, Final residual = 2.21744457e-05, No Iterations 4
GAMG:  Solving for ILambda_110_0, Initial residual = 1, Final residual = 2.49997652e-05, No Iterations 4
GAMG:  Solving for ILambda_111_0, Initial residual = 1, Final residual = 2.50313021e-05, No Iterations 4
GAMG:  Solving for ILambda_112_0, Initial residual = 1, Final residual = 2.41755576e-05, No Iterations 4
GAMG:  Solving for ILambda_113_0, Initial residual = 1, Final residual = 2.6432664e-05, No Iterations 4
GAMG:  Solving for ILambda_114_0, Initial residual = 1, Final residual = 2.8813289e-05, No Iterations 4
GAMG:  Solving for ILambda_115_0, Initial residual = 1, Final residual = 3.19952507e-05, No Iterations 4
GAMG:  Solving for ILambda_116_0, Initial residual = 1, Final residual = 4.28284437e-05, No Iterations 4
GAMG:  Solving for ILambda_117_0, Initial residual = 1, Final residual = 5.17136736e-05, No Iterations 4
GAMG:  Solving for ILambda_118_0, Initial residual = 1, Final residual = 5.71849389e-05, No Iterations 4
GAMG:  Solving for ILambda_119_0, Initial residual = 1, Final residual = 4.86033755e-05, No Iterations 4
GAMG:  Solving for ILambda_120_0, Initial residual = 1, Final residual = 2.66459883e-05, No Iterations 4
GAMG:  Solving for ILambda_121_0, Initial residual = 1, Final residual = 2.47962154e-05, No Iterations 4
GAMG:  Solving for ILambda_122_0, Initial residual = 1, Final residual = 2.99556052e-05, No Iterations 4
GAMG:  Solving for ILambda_123_0, Initial residual = 1, Final residual = 3.25972066e-05, No Iterations 4
GAMG:  Solving for ILambda_124_0, Initial residual = 1, Final residual = 2.6600809e-05, No Iterations 4
GAMG:  Solving for ILambda_125_0, Initial residual = 1, Final residual = 2.14584932e-05, No Iterations 4
GAMG:  Solving for ILambda_126_0, Initial residual = 1, Final residual = 2.74647318e-05, No Iterations 4
GAMG:  Solving for ILambda_127_0, Initial residual = 1, Final residual = 3.18001351e-05, No Iterations 4
GAMG:  Solving for ILambda_128_0, Initial residual = 1, Final residual = 4.31802936e-05, No Iterations 4
GAMG:  Solving for ILambda_129_0, Initial residual = 1, Final residual = 4.85206405e-05, No Iterations 4
GAMG:  Solving for ILambda_130_0, Initial residual = 1, Final residual = 6.02299956e-05, No Iterations 4
GAMG:  Solving for ILambda_131_0, Initial residual = 1, Final residual = 5.32683958e-05, No Iterations 4
GAMG:  Solving for ILambda_132_0, Initial residual = 1, Final residual = 4.53550527e-05, No Iterations 4
GAMG:  Solving for ILambda_133_0, Initial residual = 1, Final residual = 3.75639173e-05, No Iterations 4
GAMG:  Solving for ILambda_134_0, Initial residual = 1, Final residual = 3.80042833e-05, No Iterations 4
GAMG:  Solving for ILambda_135_0, Initial residual = 1, Final residual = 3.5891397e-05, No Iterations 4
GAMG:  Solving for ILambda_136_0, Initial residual = 1, Final residual = 3.18226409e-05, No Iterations 4
GAMG:  Solving for ILambda_137_0, Initial residual = 1, Final residual = 3.0790833e-05, No Iterations 4
GAMG:  Solving for ILambda_138_0, Initial residual = 1, Final residual = 2.58159744e-05, No Iterations 4
GAMG:  Solving for ILambda_139_0, Initial residual = 1, Final residual = 2.84128827e-05, No Iterations 4
GAMG:  Solving for ILambda_140_0, Initial residual = 1, Final residual = 3.65680795e-05, No Iterations 4
GAMG:  Solving for ILambda_141_0, Initial residual = 1, Final residual = 4.38166202e-05, No Iterations 4
GAMG:  Solving for ILambda_142_0, Initial residual = 1, Final residual = 3.7824331e-05, No Iterations 4
GAMG:  Solving for ILambda_143_0, Initial residual = 1, Final residual = 2.79018802e-05, No Iterations 4
GAMG:  Solving for ILambda_144_0, Initial residual = 1, Final residual = 1.86809963e-05, No Iterations 4
GAMG:  Solving for ILambda_145_0, Initial residual = 1, Final residual = 1.733423e-05, No Iterations 4
GAMG:  Solving for ILambda_146_0, Initial residual = 1, Final residual = 1.43781793e-05, No Iterations 4
GAMG:  Solving for ILambda_147_0, Initial residual = 1, Final residual = 9.23542075e-05, No Iterations 3
GAMG:  Solving for ILambda_148_0, Initial residual = 1, Final residual = 9.03455009e-05, No Iterations 3
GAMG:  Solving for ILambda_149_0, Initial residual = 1, Final residual = 1.67134153e-05, No Iterations 4
GAMG:  Solving for ILambda_150_0, Initial residual = 1, Final residual = 1.83694219e-05, No Iterations 4
GAMG:  Solving for ILambda_151_0, Initial residual = 1, Final residual = 1.92986693e-05, No Iterations 4
GAMG:  Solving for ILambda_152_0, Initial residual = 1, Final residual = 2.89063304e-05, No Iterations 4
GAMG:  Solving for ILambda_153_0, Initial residual = 1, Final residual = 3.67759841e-05, No Iterations 4
GAMG:  Solving for ILambda_154_0, Initial residual = 1, Final residual = 3.82088262e-05, No Iterations 4
GAMG:  Solving for ILambda_155_0, Initial residual = 1, Final residual = 5.65084203e-05, No Iterations 4
GAMG:  Solving for ILambda_156_0, Initial residual = 1, Final residual = 5.47234687e-05, No Iterations 4
GAMG:  Solving for ILambda_157_0, Initial residual = 1, Final residual = 3.273013e-05, No Iterations 4
GAMG:  Solving for ILambda_158_0, Initial residual = 1, Final residual = 3.10063866e-05, No Iterations 4
GAMG:  Solving for ILambda_159_0, Initial residual = 1, Final residual = 2.56870228e-05, No Iterations 4
GAMG:  Solving for ILambda_160_0, Initial residual = 1, Final residual = 1.78112393e-05, No Iterations 4
GAMG:  Solving for ILambda_161_0, Initial residual = 1, Final residual = 1.77207893e-05, No Iterations 4
GAMG:  Solving for ILambda_162_0, Initial residual = 1, Final residual = 1.75851298e-05, No Iterations 4
GAMG:  Solving for ILambda_163_0, Initial residual = 1, Final residual = 9.26643696e-05, No Iterations 3
GAMG:  Solving for ILambda_164_0, Initial residual = 1, Final residual = 8.9649536e-05, No Iterations 3
GAMG:  Solving for ILambda_165_0, Initial residual = 1, Final residual = 1.30580641e-05, No Iterations 4
GAMG:  Solving for ILambda_166_0, Initial residual = 1, Final residual = 1.5725019e-05, No Iterations 4
GAMG:  Solving for ILambda_167_0, Initial residual = 1, Final residual = 1.69155547e-05, No Iterations 4
GAMG:  Solving for ILambda_168_0, Initial residual = 1, Final residual = 1.85628872e-05, No Iterations 4
GAMG:  Solving for ILambda_169_0, Initial residual = 1, Final residual = 1.28745421e-05, No Iterations 4
GAMG:  Solving for ILambda_170_0, Initial residual = 1, Final residual = 9.54551216e-05, No Iterations 3
GAMG:  Solving for ILambda_171_0, Initial residual = 1, Final residual = 8.09667954e-05, No Iterations 3
GAMG:  Solving for ILambda_172_0, Initial residual = 1, Final residual = 8.56108513e-05, No Iterations 3
GAMG:  Solving for ILambda_173_0, Initial residual = 1, Final residual = 2.43829024e-05, No Iterations 4
GAMG:  Solving for ILambda_174_0, Initial residual = 1, Final residual = 2.29007445e-05, No Iterations 4
GAMG:  Solving for ILambda_175_0, Initial residual = 1, Final residual = 1.35968744e-05, No Iterations 4
GAMG:  Solving for ILambda_176_0, Initial residual = 1, Final residual = 1.93384016e-05, No Iterations 4
GAMG:  Solving for ILambda_177_0, Initial residual = 1, Final residual = 2.65405135e-05, No Iterations 4
GAMG:  Solving for ILambda_178_0, Initial residual = 1, Final residual = 3.12579902e-05, No Iterations 4
GAMG:  Solving for ILambda_179_0, Initial residual = 1, Final residual = 6.48013997e-05, No Iterations 4
GAMG:  Solving for ILambda_180_0, Initial residual = 1, Final residual = 6.95934172e-05, No Iterations 4
GAMG:  Solving for ILambda_181_0, Initial residual = 1, Final residual = 2.76938604e-05, No Iterations 4
GAMG:  Solving for ILambda_182_0, Initial residual = 1, Final residual = 2.40169028e-05, No Iterations 4
GAMG:  Solving for ILambda_183_0, Initial residual = 1, Final residual = 1.90895504e-05, No Iterations 4
GAMG:  Solving for ILambda_184_0, Initial residual = 1, Final residual = 1.3947668e-05, No Iterations 4
GAMG:  Solving for ILambda_185_0, Initial residual = 1, Final residual = 2.31859298e-05, No Iterations 4
GAMG:  Solving for ILambda_186_0, Initial residual = 1, Final residual = 2.64568813e-05, No Iterations 4
GAMG:  Solving for ILambda_187_0, Initial residual = 1, Final residual = 8.65159497e-05, No Iterations 3
GAMG:  Solving for ILambda_188_0, Initial residual = 1, Final residual = 8.10827599e-05, No Iterations 3
GAMG:  Solving for ILambda_189_0, Initial residual = 1, Final residual = 8.80253487e-05, No Iterations 3
GAMG:  Solving for ILambda_190_0, Initial residual = 1, Final residual = 1.1483336e-05, No Iterations 4
GAMG:  Solving for ILambda_191_0, Initial residual = 1, Final residual = 1.74029021e-05, No Iterations 4
GAMG:  Solving for ILambda_192_0, Initial residual = 1, Final residual = 2.42151605e-05, No Iterations 4
GAMG:  Solving for ILambda_193_0, Initial residual = 1, Final residual = 1.44407244e-05, No Iterations 4
GAMG:  Solving for ILambda_194_0, Initial residual = 1, Final residual = 9.4510064e-05, No Iterations 3
GAMG:  Solving for ILambda_195_0, Initial residual = 1, Final residual = 8.89781629e-05, No Iterations 3
GAMG:  Solving for ILambda_196_0, Initial residual = 1, Final residual = 1.69061478e-05, No Iterations 4
GAMG:  Solving for ILambda_197_0, Initial residual = 1, Final residual = 4.85112191e-05, No Iterations 4
GAMG:  Solving for ILambda_198_0, Initial residual = 1, Final residual = 4.44195528e-05, No Iterations 4
GAMG:  Solving for ILambda_199_0, Initial residual = 1, Final residual = 2.27502574e-05, No Iterations 4
GAMG:  Solving for ILambda_200_0, Initial residual = 1, Final residual = 2.08091062e-05, No Iterations 4
GAMG:  Solving for ILambda_201_0, Initial residual = 1, Final residual = 2.6759653e-05, No Iterations 4
GAMG:  Solving for ILambda_202_0, Initial residual = 1, Final residual = 3.58953786e-05, No Iterations 4
GAMG:  Solving for ILambda_203_0, Initial residual = 1, Final residual = 8.3415643e-05, No Iterations 4
GAMG:  Solving for ILambda_204_0, Initial residual = 1, Final residual = 8.95258651e-05, No Iterations 4
GAMG:  Solving for ILambda_205_0, Initial residual = 1, Final residual = 3.58760341e-05, No Iterations 4
GAMG:  Solving for ILambda_206_0, Initial residual = 1, Final residual = 2.78603948e-05, No Iterations 4
GAMG:  Solving for ILambda_207_0, Initial residual = 1, Final residual = 2.36174524e-05, No Iterations 4
GAMG:  Solving for ILambda_208_0, Initial residual = 1, Final residual = 2.23981348e-05, No Iterations 4
GAMG:  Solving for ILambda_209_0, Initial residual = 1, Final residual = 4.64938596e-05, No Iterations 4
GAMG:  Solving for ILambda_210_0, Initial residual = 1, Final residual = 4.77110281e-05, No Iterations 4
GAMG:  Solving for ILambda_211_0, Initial residual = 1, Final residual = 1.73575523e-05, No Iterations 4
GAMG:  Solving for ILambda_212_0, Initial residual = 1, Final residual = 8.45104317e-05, No Iterations 3
GAMG:  Solving for ILambda_213_0, Initial residual = 1, Final residual = 8.91405466e-05, No Iterations 3
GAMG:  Solving for ILambda_214_0, Initial residual = 1, Final residual = 9.92668267e-05, No Iterations 3
GAMG:  Solving for ILambda_215_0, Initial residual = 1, Final residual = 2.32874683e-05, No Iterations 4
GAMG:  Solving for ILambda_216_0, Initial residual = 1, Final residual = 3.76432542e-05, No Iterations 4
GAMG:  Solving for ILambda_217_0, Initial residual = 1, Final residual = 2.46606437e-05, No Iterations 4
GAMG:  Solving for ILambda_218_0, Initial residual = 1, Final residual = 2.21170312e-05, No Iterations 4
GAMG:  Solving for ILambda_219_0, Initial residual = 1, Final residual = 2.4617297e-05, No Iterations 4
GAMG:  Solving for ILambda_220_0, Initial residual = 1, Final residual = 3.42066675e-05, No Iterations 4
GAMG:  Solving for ILambda_221_0, Initial residual = 1, Final residual = 6.24609561e-05, No Iterations 4
GAMG:  Solving for ILambda_222_0, Initial residual = 1, Final residual = 7.60781812e-05, No Iterations 4
GAMG:  Solving for ILambda_223_0, Initial residual = 1, Final residual = 4.8583604e-05, No Iterations 4
GAMG:  Solving for ILambda_224_0, Initial residual = 1, Final residual = 3.8419424e-05, No Iterations 4
GAMG:  Solving for ILambda_225_0, Initial residual = 1, Final residual = 4.05535408e-05, No Iterations 4
GAMG:  Solving for ILambda_226_0, Initial residual = 1, Final residual = 5.09884358e-05, No Iterations 4
GAMG:  Solving for ILambda_227_0, Initial residual = 1, Final residual = 8.73533839e-05, No Iterations 4
GAMG:  Solving for ILambda_228_0, Initial residual = 1, Final residual = 8.05766265e-05, No Iterations 4
GAMG:  Solving for ILambda_229_0, Initial residual = 1, Final residual = 4.85212551e-05, No Iterations 4
GAMG:  Solving for ILambda_230_0, Initial residual = 1, Final residual = 3.87034289e-05, No Iterations 4
GAMG:  Solving for ILambda_231_0, Initial residual = 1, Final residual = 3.71296249e-05, No Iterations 4
GAMG:  Solving for ILambda_232_0, Initial residual = 1, Final residual = 5.01562429e-05, No Iterations 4
GAMG:  Solving for ILambda_233_0, Initial residual = 1, Final residual = 7.43102741e-05, No Iterations 4
GAMG:  Solving for ILambda_234_0, Initial residual = 1, Final residual = 6.31151509e-05, No Iterations 4
GAMG:  Solving for ILambda_235_0, Initial residual = 1, Final residual = 3.50786016e-05, No Iterations 4
GAMG:  Solving for ILambda_236_0, Initial residual = 1, Final residual = 2.61504666e-05, No Iterations 4
GAMG:  Solving for ILambda_237_0, Initial residual = 1, Final residual = 2.27533446e-05, No Iterations 4
GAMG:  Solving for ILambda_238_0, Initial residual = 1, Final residual = 2.55586738e-05, No Iterations 4
GAMG:  Solving for ILambda_239_0, Initial residual = 1, Final residual = 3.65541615e-05, No Iterations 4
Radiation solver iter: 1
GAMG:  Solving for ILambda_0_0, Initial residual = 0.0502827471, Final residual = 3.66811039e-05, No Iterations 5
GAMG:  Solving for ILambda_1_0, Initial residual = 0.0518137315, Final residual = 8.087738e-05, No Iterations 4
GAMG:  Solving for ILambda_2_0, Initial residual = 0.052673976, Final residual = 6.092714e-05, No Iterations 4
GAMG:  Solving for ILambda_3_0, Initial residual = 0.0532857789, Final residual = 5.73555092e-05, No Iterations 4
GAMG:  Solving for ILambda_4_0, Initial residual = 0.0535098801, Final residual = 6.18183281e-05, No Iterations 4
GAMG:  Solving for ILambda_5_0, Initial residual = 0.0534126018, Final residual = 7.87194944e-05, No Iterations 4
GAMG:  Solving for ILambda_6_0, Initial residual = 0.0545077633, Final residual = 7.43627202e-05, No Iterations 4
GAMG:  Solving for ILambda_7_0, Initial residual = 0.0579861511, Final residual = 4.55092956e-05, No Iterations 4
GAMG:  Solving for ILambda_8_0, Initial residual = 0.0616775265, Final residual = 3.62398941e-05, No Iterations 4
GAMG:  Solving for ILambda_9_0, Initial residual = 0.0643542209, Final residual = 3.29722206e-05, No Iterations 4
GAMG:  Solving for ILambda_10_0, Initial residual = 0.0645314667, Final residual = 4.62911655e-05, No Iterations 4
GAMG:  Solving for ILambda_11_0, Initial residual = 0.0613734764, Final residual = 8.7810509e-05, No Iterations 4
GAMG:  Solving for ILambda_12_0, Initial residual = 0.0602763888, Final residual = 7.97755986e-05, No Iterations 4
GAMG:  Solving for ILambda_13_0, Initial residual = 0.064867973, Final residual = 4.73353848e-05, No Iterations 4
GAMG:  Solving for ILambda_14_0, Initial residual = 0.0649624827, Final residual = 3.71653228e-05, No Iterations 4
GAMG:  Solving for ILambda_15_0, Initial residual = 0.0621895725, Final residual = 3.67183844e-05, No Iterations 4
GAMG:  Solving for ILambda_16_0, Initial residual = 0.0583783598, Final residual = 4.54196463e-05, No Iterations 4
GAMG:  Solving for ILambda_17_0, Initial residual = 0.05471031, Final residual = 8.96027249e-05, No Iterations 4
GAMG:  Solving for ILambda_18_0, Initial residual = 0.053738659, Final residual = 8.45614491e-05, No Iterations 4
GAMG:  Solving for ILambda_19_0, Initial residual = 0.0536891655, Final residual = 5.8392621e-05, No Iterations 4
GAMG:  Solving for ILambda_20_0, Initial residual = 0.053453387, Final residual = 6.01755484e-05, No Iterations 4
GAMG:  Solving for ILambda_21_0, Initial residual = 0.0527618265, Final residual = 6.40718867e-05, No Iterations 4
GAMG:  Solving for ILambda_22_0, Initial residual = 0.0516757288, Final residual = 8.15446841e-05, No Iterations 4
GAMG:  Solving for ILambda_23_0, Initial residual = 0.0498239263, Final residual = 3.67793739e-05, No Iterations 5
GAMG:  Solving for ILambda_24_0, Initial residual = 0.0650170134, Final residual = 4.09305655e-05, No Iterations 5
GAMG:  Solving for ILambda_25_0, Initial residual = 0.0636013024, Final residual = 9.22957434e-05, No Iterations 4
GAMG:  Solving for ILambda_26_0, Initial residual = 0.0612554425, Final residual = 6.77062002e-05, No Iterations 4
GAMG:  Solving for ILambda_27_0, Initial residual = 0.0585392047, Final residual = 4.05227075e-05, No Iterations 4
GAMG:  Solving for ILambda_28_0, Initial residual = 0.0551864035, Final residual = 2.65933176e-05, No Iterations 4
GAMG:  Solving for ILambda_29_0, Initial residual = 0.0523228293, Final residual = 3.59093577e-05, No Iterations 4
GAMG:  Solving for ILambda_30_0, Initial residual = 0.054836191, Final residual = 3.56779927e-05, No Iterations 4
GAMG:  Solving for ILambda_31_0, Initial residual = 0.0624795128, Final residual = 1.87547965e-05, No Iterations 4
GAMG:  Solving for ILambda_32_0, Initial residual = 0.0711131185, Final residual = 1.54673533e-05, No Iterations 4
GAMG:  Solving for ILambda_33_0, Initial residual = 0.0782656116, Final residual = 1.75432721e-05, No Iterations 4
GAMG:  Solving for ILambda_34_0, Initial residual = 0.0831869196, Final residual = 2.71588899e-05, No Iterations 4
GAMG:  Solving for ILambda_35_0, Initial residual = 0.0802358541, Final residual = 8.11722766e-05, No Iterations 4
GAMG:  Solving for ILambda_36_0, Initial residual = 0.0801623731, Final residual = 8.73836553e-05, No Iterations 4
GAMG:  Solving for ILambda_37_0, Initial residual = 0.0840033331, Final residual = 3.10313068e-05, No Iterations 4
GAMG:  Solving for ILambda_38_0, Initial residual = 0.0791751521, Final residual = 2.26406626e-05, No Iterations 4
GAMG:  Solving for ILambda_39_0, Initial residual = 0.0720608504, Final residual = 2.05224705e-05, No Iterations 4
GAMG:  Solving for ILambda_40_0, Initial residual = 0.0635686686, Final residual = 2.06019842e-05, No Iterations 4
GAMG:  Solving for ILambda_41_0, Initial residual = 0.0556316244, Final residual = 4.4470095e-05, No Iterations 4
GAMG:  Solving for ILambda_42_0, Initial residual = 0.0528031039, Final residual = 4.63660892e-05, No Iterations 4
GAMG:  Solving for ILambda_43_0, Initial residual = 0.0555364141, Final residual = 3.20347757e-05, No Iterations 4
GAMG:  Solving for ILambda_44_0, Initial residual = 0.0585014685, Final residual = 4.89639911e-05, No Iterations 4
GAMG:  Solving for ILambda_45_0, Initial residual = 0.0608605221, Final residual = 7.82132966e-05, No Iterations 4
GAMG:  Solving for ILambda_46_0, Initial residual = 0.063358765, Final residual = 2.24617208e-05, No Iterations 5
GAMG:  Solving for ILambda_47_0, Initial residual = 0.0645437468, Final residual = 4.08040784e-05, No Iterations 5
GAMG:  Solving for ILambda_48_0, Initial residual = 0.0755150242, Final residual = 2.56876903e-05, No Iterations 5
GAMG:  Solving for ILambda_49_0, Initial residual = 0.071976487, Final residual = 5.93583882e-05, No Iterations 4
GAMG:  Solving for ILambda_50_0, Initial residual = 0.0657875063, Final residual = 3.85884591e-05, No Iterations 4
GAMG:  Solving for ILambda_51_0, Initial residual = 0.0586335193, Final residual = 3.78034738e-05, No Iterations 4
GAMG:  Solving for ILambda_52_0, Initial residual = 0.052345266, Final residual = 2.70328102e-05, No Iterations 4
GAMG:  Solving for ILambda_53_0, Initial residual = 0.0467665937, Final residual = 2.31557576e-05, No Iterations 4
GAMG:  Solving for ILambda_54_0, Initial residual = 0.049796332, Final residual = 2.27168182e-05, No Iterations 4
GAMG:  Solving for ILambda_55_0, Initial residual = 0.0612892652, Final residual = 1.4581502e-05, No Iterations 4
GAMG:  Solving for ILambda_56_0, Initial residual = 0.072168091, Final residual = 1.40650163e-05, No Iterations 4
GAMG:  Solving for ILambda_57_0, Initial residual = 0.0826540224, Final residual = 1.81524941e-05, No Iterations 4
GAMG:  Solving for ILambda_58_0, Initial residual = 0.0908792347, Final residual = 2.01587193e-05, No Iterations 4
GAMG:  Solving for ILambda_59_0, Initial residual = 0.0883749266, Final residual = 5.11783135e-05, No Iterations 4
GAMG:  Solving for ILambda_60_0, Initial residual = 0.0885245484, Final residual = 4.4087494e-05, No Iterations 4
GAMG:  Solving for ILambda_61_0, Initial residual = 0.0916517366, Final residual = 2.78462337e-05, No Iterations 4
GAMG:  Solving for ILambda_62_0, Initial residual = 0.0839113763, Final residual = 2.24911744e-05, No Iterations 4
GAMG:  Solving for ILambda_63_0, Initial residual = 0.0735318211, Final residual = 1.73571921e-05, No Iterations 4
GAMG:  Solving for ILambda_64_0, Initial residual = 0.0621905028, Final residual = 1.67377065e-05, No Iterations 4
GAMG:  Solving for ILambda_65_0, Initial residual = 0.0502986812, Final residual = 2.65525535e-05, No Iterations 4
GAMG:  Solving for ILambda_66_0, Initial residual = 0.0473698807, Final residual = 2.73732848e-05, No Iterations 4
GAMG:  Solving for ILambda_67_0, Initial residual = 0.0525202689, Final residual = 3.22574854e-05, No Iterations 4
GAMG:  Solving for ILambda_68_0, Initial residual = 0.0582452204, Final residual = 4.53831797e-05, No Iterations 4
GAMG:  Solving for ILambda_69_0, Initial residual = 0.0651222848, Final residual = 4.92605461e-05, No Iterations 4
GAMG:  Solving for ILambda_70_0, Initial residual = 0.0711037199, Final residual = 6.51656734e-05, No Iterations 4
GAMG:  Solving for ILambda_71_0, Initial residual = 0.0753687312, Final residual = 2.67860348e-05, No Iterations 5
GAMG:  Solving for ILambda_72_0, Initial residual = 0.0798387162, Final residual = 6.89927785e-05, No Iterations 4
GAMG:  Solving for ILambda_73_0, Initial residual = 0.0763011304, Final residual = 3.36250075e-05, No Iterations 4
GAMG:  Solving for ILambda_74_0, Initial residual = 0.0691138667, Final residual = 3.2621479e-05, No Iterations 4
GAMG:  Solving for ILambda_75_0, Initial residual = 0.0587891785, Final residual = 3.21157248e-05, No Iterations 4
GAMG:  Solving for ILambda_76_0, Initial residual = 0.0495764276, Final residual = 2.38039589e-05, No Iterations 4
GAMG:  Solving for ILambda_77_0, Initial residual = 0.0403842132, Final residual = 1.64699242e-05, No Iterations 4
GAMG:  Solving for ILambda_78_0, Initial residual = 0.0436351463, Final residual = 1.49800964e-05, No Iterations 4
GAMG:  Solving for ILambda_79_0, Initial residual = 0.0574116787, Final residual = 9.07084147e-05, No Iterations 3
GAMG:  Solving for ILambda_80_0, Initial residual = 0.0697285952, Final residual = 1.33699307e-05, No Iterations 4
GAMG:  Solving for ILambda_81_0, Initial residual = 0.0816216771, Final residual = 2.0513943e-05, No Iterations 4
GAMG:  Solving for ILambda_82_0, Initial residual = 0.0908705304, Final residual = 2.15617119e-05, No Iterations 4
GAMG:  Solving for ILambda_83_0, Initial residual = 0.0875191967, Final residual = 2.77897769e-05, No Iterations 4
GAMG:  Solving for ILambda_84_0, Initial residual = 0.0880343061, Final residual = 2.35443411e-05, No Iterations 4
GAMG:  Solving for ILambda_85_0, Initial residual = 0.0919459006, Final residual = 2.2456209e-05, No Iterations 4
GAMG:  Solving for ILambda_86_0, Initial residual = 0.0828602272, Final residual = 1.79202945e-05, No Iterations 4
GAMG:  Solving for ILambda_87_0, Initial residual = 0.0707665348, Final residual = 1.58767585e-05, No Iterations 4
GAMG:  Solving for ILambda_88_0, Initial residual = 0.0579511482, Final residual = 1.34781227e-05, No Iterations 4
GAMG:  Solving for ILambda_89_0, Initial residual = 0.0437917023, Final residual = 1.80896526e-05, No Iterations 4
GAMG:  Solving for ILambda_90_0, Initial residual = 0.0409183647, Final residual = 2.17765077e-05, No Iterations 4
GAMG:  Solving for ILambda_91_0, Initial residual = 0.0496358336, Final residual = 2.78410592e-05, No Iterations 4
GAMG:  Solving for ILambda_92_0, Initial residual = 0.0584615244, Final residual = 4.16530349e-05, No Iterations 4
GAMG:  Solving for ILambda_93_0, Initial residual = 0.0682361154, Final residual = 4.32310775e-05, No Iterations 4
GAMG:  Solving for ILambda_94_0, Initial residual = 0.0756189155, Final residual = 4.08999351e-05, No Iterations 4
GAMG:  Solving for ILambda_95_0, Initial residual = 0.0806219557, Final residual = 7.95009454e-05, No Iterations 4
GAMG:  Solving for ILambda_96_0, Initial residual = 0.0822823946, Final residual = 4.74415159e-05, No Iterations 4
GAMG:  Solving for ILambda_97_0, Initial residual = 0.080585487, Final residual = 3.14566949e-05, No Iterations 4
GAMG:  Solving for ILambda_98_0, Initial residual = 0.0717203812, Final residual = 3.10460632e-05, No Iterations 4
GAMG:  Solving for ILambda_99_0, Initial residual = 0.0593947445, Final residual = 3.89583538e-05, No Iterations 4
GAMG:  Solving for ILambda_100_0, Initial residual = 0.0472003175, Final residual = 3.16287467e-05, No Iterations 4
GAMG:  Solving for ILambda_101_0, Initial residual = 0.0331017888, Final residual = 2.44721685e-05, No Iterations 4
GAMG:  Solving for ILambda_102_0, Initial residual = 0.0353742643, Final residual = 2.29855273e-05, No Iterations 4
GAMG:  Solving for ILambda_103_0, Initial residual = 0.0511008598, Final residual = 2.53238248e-05, No Iterations 4
GAMG:  Solving for ILambda_104_0, Initial residual = 0.0648411344, Final residual = 3.32143832e-05, No Iterations 4
GAMG:  Solving for ILambda_105_0, Initial residual = 0.077503788, Final residual = 3.59649111e-05, No Iterations 4
GAMG:  Solving for ILambda_106_0, Initial residual = 0.0869614843, Final residual = 3.78514675e-05, No Iterations 4
GAMG:  Solving for ILambda_107_0, Initial residual = 0.0811318851, Final residual = 2.68526486e-05, No Iterations 4
GAMG:  Solving for ILambda_108_0, Initial residual = 0.0817319604, Final residual = 2.53926789e-05, No Iterations 4
GAMG:  Solving for ILambda_109_0, Initial residual = 0.0879059033, Final residual = 2.50662763e-05, No Iterations 4
GAMG:  Solving for ILambda_110_0, Initial residual = 0.0782742976, Final residual = 2.61417111e-05, No Iterations 4
GAMG:  Solving for ILambda_111_0, Initial residual = 0.0652327445, Final residual = 3.02931871e-05, No Iterations 4
GAMG:  Solving for ILambda_112_0, Initial residual = 0.0513571108, Final residual = 2.73403504e-05, No Iterations 4
GAMG:  Solving for ILambda_113_0, Initial residual = 0.0353656746, Final residual = 2.83210359e-05, No Iterations 4
GAMG:  Solving for ILambda_114_0, Initial residual = 0.0333214581, Final residual = 3.50811804e-05, No Iterations 4
GAMG:  Solving for ILambda_115_0, Initial residual = 0.0471677039, Final residual = 3.97170525e-05, No Iterations 4
GAMG:  Solving for ILambda_116_0, Initial residual = 0.059265511, Final residual = 5.36069584e-05, No Iterations 4
GAMG:  Solving for ILambda_117_0, Initial residual = 0.0711072994, Final residual = 5.91596514e-05, No Iterations 4
GAMG:  Solving for ILambda_118_0, Initial residual = 0.0809664125, Final residual = 6.23569136e-05, No Iterations 4
GAMG:  Solving for ILambda_119_0, Initial residual = 0.0836559606, Final residual = 5.57741083e-05, No Iterations 4
GAMG:  Solving for ILambda_120_0, Initial residual = 0.0781879739, Final residual = 2.494886e-05, No Iterations 4
GAMG:  Solving for ILambda_121_0, Initial residual = 0.0804007184, Final residual = 3.38374154e-05, No Iterations 4
GAMG:  Solving for ILambda_122_0, Initial residual = 0.0712036321, Final residual = 2.91195128e-05, No Iterations 4
GAMG:  Solving for ILambda_123_0, Initial residual = 0.0594037401, Final residual = 3.06703874e-05, No Iterations 4
GAMG:  Solving for ILambda_124_0, Initial residual = 0.0463359367, Final residual = 2.80902836e-05, No Iterations 4
GAMG:  Solving for ILambda_125_0, Initial residual = 0.0312687725, Final residual = 1.91024549e-05, No Iterations 4
GAMG:  Solving for ILambda_126_0, Initial residual = 0.0300889746, Final residual = 2.35616372e-05, No Iterations 4
GAMG:  Solving for ILambda_127_0, Initial residual = 0.0423093216, Final residual = 3.29386973e-05, No Iterations 4
GAMG:  Solving for ILambda_128_0, Initial residual = 0.0533218335, Final residual = 5.22173161e-05, No Iterations 4
GAMG:  Solving for ILambda_129_0, Initial residual = 0.064364813, Final residual = 5.53467622e-05, No Iterations 4
GAMG:  Solving for ILambda_130_0, Initial residual = 0.072888445, Final residual = 5.61055792e-05, No Iterations 4
GAMG:  Solving for ILambda_131_0, Initial residual = 0.0691070778, Final residual = 5.9189032e-05, No Iterations 4
GAMG:  Solving for ILambda_132_0, Initial residual = 0.068934202, Final residual = 5.03537943e-05, No Iterations 4
GAMG:  Solving for ILambda_133_0, Initial residual = 0.0734185259, Final residual = 4.14056118e-05, No Iterations 4
GAMG:  Solving for ILambda_134_0, Initial residual = 0.0647103439, Final residual = 4.71088372e-05, No Iterations 4
GAMG:  Solving for ILambda_135_0, Initial residual = 0.0535431726, Final residual = 4.6933609e-05, No Iterations 4
GAMG:  Solving for ILambda_136_0, Initial residual = 0.0426279035, Final residual = 3.31726008e-05, No Iterations 4
GAMG:  Solving for ILambda_137_0, Initial residual = 0.0302375406, Final residual = 2.9801193e-05, No Iterations 4
GAMG:  Solving for ILambda_138_0, Initial residual = 0.0316097547, Final residual = 2.50307681e-05, No Iterations 4
GAMG:  Solving for ILambda_139_0, Initial residual = 0.0465778884, Final residual = 3.31466e-05, No Iterations 4
GAMG:  Solving for ILambda_140_0, Initial residual = 0.0593871208, Final residual = 3.79777856e-05, No Iterations 4
GAMG:  Solving for ILambda_141_0, Initial residual = 0.0711617069, Final residual = 4.90433844e-05, No Iterations 4
GAMG:  Solving for ILambda_142_0, Initial residual = 0.0810627724, Final residual = 4.78566935e-05, No Iterations 4
GAMG:  Solving for ILambda_143_0, Initial residual = 0.0792258542, Final residual = 3.39414872e-05, No Iterations 4
GAMG:  Solving for ILambda_144_0, Initial residual = 0.0729026994, Final residual = 2.44659697e-05, No Iterations 4
GAMG:  Solving for ILambda_145_0, Initial residual = 0.0756958982, Final residual = 1.98894036e-05, No Iterations 4
GAMG:  Solving for ILambda_146_0, Initial residual = 0.0674076986, Final residual = 1.6706608e-05, No Iterations 4
GAMG:  Solving for ILambda_147_0, Initial residual = 0.0578136564, Final residual = 9.75107656e-05, No Iterations 3
GAMG:  Solving for ILambda_148_0, Initial residual = 0.0473645756, Final residual = 9.83509e-05, No Iterations 3
GAMG:  Solving for ILambda_149_0, Initial residual = 0.0354031945, Final residual = 1.54544222e-05, No Iterations 4
GAMG:  Solving for ILambda_150_0, Initial residual = 0.0335733436, Final residual = 1.6244435e-05, No Iterations 4
GAMG:  Solving for ILambda_151_0, Initial residual = 0.0404004709, Final residual = 2.0753949e-05, No Iterations 4
GAMG:  Solving for ILambda_152_0, Initial residual = 0.0460131375, Final residual = 3.02574713e-05, No Iterations 4
GAMG:  Solving for ILambda_153_0, Initial residual = 0.0523151966, Final residual = 4.36752386e-05, No Iterations 4
GAMG:  Solving for ILambda_154_0, Initial residual = 0.058291842, Final residual = 4.94222799e-05, No Iterations 4
GAMG:  Solving for ILambda_155_0, Initial residual = 0.0581873201, Final residual = 6.99451391e-05, No Iterations 4
GAMG:  Solving for ILambda_156_0, Initial residual = 0.0581050953, Final residual = 6.93793891e-05, No Iterations 4
GAMG:  Solving for ILambda_157_0, Initial residual = 0.0586497784, Final residual = 4.46756015e-05, No Iterations 4
GAMG:  Solving for ILambda_158_0, Initial residual = 0.0528082941, Final residual = 3.78502718e-05, No Iterations 4
GAMG:  Solving for ILambda_159_0, Initial residual = 0.046464926, Final residual = 2.86838231e-05, No Iterations 4
GAMG:  Solving for ILambda_160_0, Initial residual = 0.0408480922, Final residual = 1.70129861e-05, No Iterations 4
GAMG:  Solving for ILambda_161_0, Initial residual = 0.0339104443, Final residual = 1.65731359e-05, No Iterations 4
GAMG:  Solving for ILambda_162_0, Initial residual = 0.0357254552, Final residual = 1.72057951e-05, No Iterations 4
GAMG:  Solving for ILambda_163_0, Initial residual = 0.0473766965, Final residual = 1.54721714e-05, No Iterations 4
GAMG:  Solving for ILambda_164_0, Initial residual = 0.0577340425, Final residual = 1.62437682e-05, No Iterations 4
GAMG:  Solving for ILambda_165_0, Initial residual = 0.0676005536, Final residual = 1.73657577e-05, No Iterations 4
GAMG:  Solving for ILambda_166_0, Initial residual = 0.0763248843, Final residual = 2.3605311e-05, No Iterations 4
GAMG:  Solving for ILambda_167_0, Initial residual = 0.0735120865, Final residual = 2.24640802e-05, No Iterations 4
GAMG:  Solving for ILambda_168_0, Initial residual = 0.0645861022, Final residual = 2.85958076e-05, No Iterations 4
GAMG:  Solving for ILambda_169_0, Initial residual = 0.0677170899, Final residual = 1.84217549e-05, No Iterations 4
GAMG:  Solving for ILambda_170_0, Initial residual = 0.0617522958, Final residual = 1.47870484e-05, No Iterations 4
GAMG:  Solving for ILambda_171_0, Initial residual = 0.0541358449, Final residual = 1.36533295e-05, No Iterations 4
GAMG:  Solving for ILambda_172_0, Initial residual = 0.0459465758, Final residual = 1.71061989e-05, No Iterations 4
GAMG:  Solving for ILambda_173_0, Initial residual = 0.0367706415, Final residual = 2.52853085e-05, No Iterations 4
GAMG:  Solving for ILambda_174_0, Initial residual = 0.0347759852, Final residual = 2.48648556e-05, No Iterations 4
GAMG:  Solving for ILambda_175_0, Initial residual = 0.0392347788, Final residual = 1.62218031e-05, No Iterations 4
GAMG:  Solving for ILambda_176_0, Initial residual = 0.0415934122, Final residual = 2.24232897e-05, No Iterations 4
GAMG:  Solving for ILambda_177_0, Initial residual = 0.0436330831, Final residual = 3.32442951e-05, No Iterations 4
GAMG:  Solving for ILambda_178_0, Initial residual = 0.0461005033, Final residual = 4.40661165e-05, No Iterations 4
GAMG:  Solving for ILambda_179_0, Initial residual = 0.0465790439, Final residual = 7.85803156e-05, No Iterations 4
GAMG:  Solving for ILambda_180_0, Initial residual = 0.0468655769, Final residual = 8.4110493e-05, No Iterations 4
GAMG:  Solving for ILambda_181_0, Initial residual = 0.0465863394, Final residual = 3.97383799e-05, No Iterations 4
GAMG:  Solving for ILambda_182_0, Initial residual = 0.0439861033, Final residual = 3.04937789e-05, No Iterations 4
GAMG:  Solving for ILambda_183_0, Initial residual = 0.0416897124, Final residual = 2.23438294e-05, No Iterations 4
GAMG:  Solving for ILambda_184_0, Initial residual = 0.0393149882, Final residual = 1.6417048e-05, No Iterations 4
GAMG:  Solving for ILambda_185_0, Initial residual = 0.0347556881, Final residual = 2.40743732e-05, No Iterations 4
GAMG:  Solving for ILambda_186_0, Initial residual = 0.0368829926, Final residual = 2.87881711e-05, No Iterations 4
GAMG:  Solving for ILambda_187_0, Initial residual = 0.0460351608, Final residual = 1.733891e-05, No Iterations 4
GAMG:  Solving for ILambda_188_0, Initial residual = 0.0541984594, Final residual = 1.29203375e-05, No Iterations 4
GAMG:  Solving for ILambda_189_0, Initial residual = 0.0621096184, Final residual = 1.3884539e-05, No Iterations 4
GAMG:  Solving for ILambda_190_0, Initial residual = 0.0682337343, Final residual = 1.70601907e-05, No Iterations 4
GAMG:  Solving for ILambda_191_0, Initial residual = 0.0647486899, Final residual = 2.30680896e-05, No Iterations 4
GAMG:  Solving for ILambda_192_0, Initial residual = 0.052711509, Final residual = 2.75331459e-05, No Iterations 4
GAMG:  Solving for ILambda_193_0, Initial residual = 0.0550019753, Final residual = 1.82724497e-05, No Iterations 4
GAMG:  Solving for ILambda_194_0, Initial residual = 0.0526440002, Final residual = 1.70427411e-05, No Iterations 4
GAMG:  Solving for ILambda_195_0, Initial residual = 0.0484058444, Final residual = 1.61907068e-05, No Iterations 4
GAMG:  Solving for ILambda_196_0, Initial residual = 0.0430716428, Final residual = 2.15590399e-05, No Iterations 4
GAMG:  Solving for ILambda_197_0, Initial residual = 0.0371043975, Final residual = 5.10390199e-05, No Iterations 4
GAMG:  Solving for ILambda_198_0, Initial residual = 0.0353010039, Final residual = 4.83111223e-05, No Iterations 4
GAMG:  Solving for ILambda_199_0, Initial residual = 0.0369304961, Final residual = 2.48226342e-05, No Iterations 4
GAMG:  Solving for ILambda_200_0, Initial residual = 0.0376734534, Final residual = 2.84418208e-05, No Iterations 4
GAMG:  Solving for ILambda_201_0, Initial residual = 0.0376075431, Final residual = 3.36676016e-05, No Iterations 4
GAMG:  Solving for ILambda_202_0, Initial residual = 0.0377676731, Final residual = 4.37317095e-05, No Iterations 4
GAMG:  Solving for ILambda_203_0, Initial residual = 0.0376406497, Final residual = 9.5033835e-05, No Iterations 4
GAMG:  Solving for ILambda_204_0, Initial residual = 0.0377419697, Final residual = 8.74761824e-05, No Iterations 4
GAMG:  Solving for ILambda_205_0, Initial residual = 0.0378981119, Final residual = 4.61217376e-05, No Iterations 4
GAMG:  Solving for ILambda_206_0, Initial residual = 0.0377594506, Final residual = 3.4997673e-05, No Iterations 4
GAMG:  Solving for ILambda_207_0, Initial residual = 0.0376387523, Final residual = 3.31719974e-05, No Iterations 4
GAMG:  Solving for ILambda_208_0, Initial residual = 0.0370792678, Final residual = 2.80656537e-05, No Iterations 4
GAMG:  Solving for ILambda_209_0, Initial residual = 0.0354662284, Final residual = 5.10279339e-05, No Iterations 4
GAMG:  Solving for ILambda_210_0, Initial residual = 0.0376375773, Final residual = 5.82758655e-05, No Iterations 4
GAMG:  Solving for ILambda_211_0, Initial residual = 0.0436074433, Final residual = 2.2123346e-05, No Iterations 4
GAMG:  Solving for ILambda_212_0, Initial residual = 0.0488049791, Final residual = 1.85151077e-05, No Iterations 4
GAMG:  Solving for ILambda_213_0, Initial residual = 0.0531009229, Final residual = 1.70781216e-05, No Iterations 4
GAMG:  Solving for ILambda_214_0, Initial residual = 0.0555667004, Final residual = 1.92974695e-05, No Iterations 4
GAMG:  Solving for ILambda_215_0, Initial residual = 0.0528467896, Final residual = 2.81827738e-05, No Iterations 4
GAMG:  Solving for ILambda_216_0, Initial residual = 0.0378343872, Final residual = 4.83167101e-05, No Iterations 4
GAMG:  Solving for ILambda_217_0, Initial residual = 0.0388394431, Final residual = 3.19323305e-05, No Iterations 4
GAMG:  Solving for ILambda_218_0, Initial residual = 0.0391732947, Final residual = 3.12376743e-05, No Iterations 4
GAMG:  Solving for ILambda_219_0, Initial residual = 0.0384619574, Final residual = 3.37918091e-05, No Iterations 4
GAMG:  Solving for ILambda_220_0, Initial residual = 0.0368611495, Final residual = 3.81123477e-05, No Iterations 4
GAMG:  Solving for ILambda_221_0, Initial residual = 0.0349039834, Final residual = 7.71037108e-05, No Iterations 4
GAMG:  Solving for ILambda_222_0, Initial residual = 0.0331445919, Final residual = 8.33699505e-05, No Iterations 4
GAMG:  Solving for ILambda_223_0, Initial residual = 0.0325387473, Final residual = 5.43335385e-05, No Iterations 4
GAMG:  Solving for ILambda_224_0, Initial residual = 0.0321697162, Final residual = 5.25021467e-05, No Iterations 4
GAMG:  Solving for ILambda_225_0, Initial residual = 0.0316721283, Final residual = 5.2362646e-05, No Iterations 4
GAMG:  Solving for ILambda_226_0, Initial residual = 0.0304420599, Final residual = 5.94856247e-05, No Iterations 4
GAMG:  Solving for ILambda_227_0, Initial residual = 0.02983851, Final residual = 3.05963386e-05, No Iterations 5
GAMG:  Solving for ILambda_228_0, Initial residual = 0.0300754592, Final residual = 3.34892713e-05, No Iterations 5
GAMG:  Solving for ILambda_229_0, Initial residual = 0.0308242006, Final residual = 5.93884853e-05, No Iterations 4
GAMG:  Solving for ILambda_230_0, Initial residual = 0.0321847498, Final residual = 4.73467044e-05, No Iterations 4
GAMG:  Solving for ILambda_231_0, Initial residual = 0.0328658026, Final residual = 4.54005706e-05, No Iterations 4
GAMG:  Solving for ILambda_232_0, Initial residual = 0.0331928348, Final residual = 5.59313436e-05, No Iterations 4
GAMG:  Solving for ILambda_233_0, Initial residual = 0.0338719624, Final residual = 8.80113161e-05, No Iterations 4
GAMG:  Solving for ILambda_234_0, Initial residual = 0.0353436267, Final residual = 7.29370094e-05, No Iterations 4
GAMG:  Solving for ILambda_235_0, Initial residual = 0.0373144642, Final residual = 4.29255486e-05, No Iterations 4
GAMG:  Solving for ILambda_236_0, Initial residual = 0.038955129, Final residual = 3.38160183e-05, No Iterations 4
GAMG:  Solving for ILambda_237_0, Initial residual = 0.0396786005, Final residual = 3.01771142e-05, No Iterations 4
GAMG:  Solving for ILambda_238_0, Initial residual = 0.0390535176, Final residual = 3.45009838e-05, No Iterations 4
GAMG:  Solving for ILambda_239_0, Initial residual = 0.0376862927, Final residual = 4.79864883e-05, No Iterations 4
Radiation solver iter: 2
GAMG:  Solving for ILambda_0_0, Initial residual = 0.0315507634, Final residual = 3.24709712e-05, No Iterations 4
GAMG:  Solving for ILambda_1_0, Initial residual = 0.0333133784, Final residual = 2.29393668e-05, No Iterations 4
GAMG:  Solving for ILambda_2_0, Initial residual = 0.0350588625, Final residual = 9.26696283e-05, No Iterations 3
GAMG:  Solving for ILambda_3_0, Initial residual = 0.0360717355, Final residual = 8.63368398e-05, No Iterations 3
GAMG:  Solving for ILambda_4_0, Initial residual = 0.0364182732, Final residual = 8.98457772e-05, No Iterations 3
GAMG:  Solving for ILambda_5_0, Initial residual = 0.036444231, Final residual = 2.56709636e-05, No Iterations 4
GAMG:  Solving for ILambda_6_0, Initial residual = 0.0367270969, Final residual = 2.46056458e-05, No Iterations 4
GAMG:  Solving for ILambda_7_0, Initial residual = 0.0380428637, Final residual = 8.20704778e-05, No Iterations 3
GAMG:  Solving for ILambda_8_0, Initial residual = 0.0403386405, Final residual = 7.38645457e-05, No Iterations 3
GAMG:  Solving for ILambda_9_0, Initial residual = 0.0404230383, Final residual = 6.86290143e-05, No Iterations 3
GAMG:  Solving for ILambda_10_0, Initial residual = 0.0383607926, Final residual = 8.38257999e-05, No Iterations 3
GAMG:  Solving for ILambda_11_0, Initial residual = 0.0336834698, Final residual = 2.36449607e-05, No Iterations 4
GAMG:  Solving for ILambda_12_0, Initial residual = 0.0338614804, Final residual = 2.22834003e-05, No Iterations 4
GAMG:  Solving for ILambda_13_0, Initial residual = 0.038078818, Final residual = 8.52381091e-05, No Iterations 3
GAMG:  Solving for ILambda_14_0, Initial residual = 0.040994646, Final residual = 7.45043174e-05, No Iterations 3
GAMG:  Solving for ILambda_15_0, Initial residual = 0.04075633, Final residual = 7.96079022e-05, No Iterations 3
GAMG:  Solving for ILambda_16_0, Initial residual = 0.0386859973, Final residual = 9.39516696e-05, No Iterations 3
GAMG:  Solving for ILambda_17_0, Initial residual = 0.0370506102, Final residual = 2.88594684e-05, No Iterations 4
GAMG:  Solving for ILambda_18_0, Initial residual = 0.036849566, Final residual = 2.78966623e-05, No Iterations 4
GAMG:  Solving for ILambda_19_0, Initial residual = 0.0367755175, Final residual = 1.79650405e-05, No Iterations 4
GAMG:  Solving for ILambda_20_0, Initial residual = 0.0363853946, Final residual = 9.51108817e-05, No Iterations 3
GAMG:  Solving for ILambda_21_0, Initial residual = 0.0351184572, Final residual = 9.51886076e-05, No Iterations 3
GAMG:  Solving for ILambda_22_0, Initial residual = 0.0330287755, Final residual = 2.32768716e-05, No Iterations 4
GAMG:  Solving for ILambda_23_0, Initial residual = 0.0311956614, Final residual = 3.11157643e-05, No Iterations 4
GAMG:  Solving for ILambda_24_0, Initial residual = 0.0443129238, Final residual = 4.79644598e-05, No Iterations 4
GAMG:  Solving for ILambda_25_0, Initial residual = 0.0450725785, Final residual = 3.25531395e-05, No Iterations 4
GAMG:  Solving for ILambda_26_0, Initial residual = 0.0441157442, Final residual = 2.34864526e-05, No Iterations 4
GAMG:  Solving for ILambda_27_0, Initial residual = 0.0428253689, Final residual = 8.83330948e-05, No Iterations 3
GAMG:  Solving for ILambda_28_0, Initial residual = 0.0397668388, Final residual = 6.00754604e-05, No Iterations 3
GAMG:  Solving for ILambda_29_0, Initial residual = 0.0374911131, Final residual = 6.88735484e-05, No Iterations 3
GAMG:  Solving for ILambda_30_0, Initial residual = 0.0386908153, Final residual = 6.93472868e-05, No Iterations 3
GAMG:  Solving for ILambda_31_0, Initial residual = 0.043932188, Final residual = 5.12362911e-05, No Iterations 3
GAMG:  Solving for ILambda_32_0, Initial residual = 0.0502064199, Final residual = 4.75389636e-05, No Iterations 3
GAMG:  Solving for ILambda_33_0, Initial residual = 0.0538310673, Final residual = 5.34879728e-05, No Iterations 3
GAMG:  Solving for ILambda_34_0, Initial residual = 0.0543878865, Final residual = 6.88808185e-05, No Iterations 3
GAMG:  Solving for ILambda_35_0, Initial residual = 0.0474330685, Final residual = 2.01227362e-05, No Iterations 4
GAMG:  Solving for ILambda_36_0, Initial residual = 0.0471886048, Final residual = 2.21962271e-05, No Iterations 4
GAMG:  Solving for ILambda_37_0, Initial residual = 0.0547209165, Final residual = 9.39292307e-05, No Iterations 3
GAMG:  Solving for ILambda_38_0, Initial residual = 0.0544579591, Final residual = 7.14279421e-05, No Iterations 3
GAMG:  Solving for ILambda_39_0, Initial residual = 0.050697937, Final residual = 6.25769076e-05, No Iterations 3
GAMG:  Solving for ILambda_40_0, Initial residual = 0.0448578257, Final residual = 6.21515273e-05, No Iterations 3
GAMG:  Solving for ILambda_41_0, Initial residual = 0.0393204004, Final residual = 9.11674336e-05, No Iterations 3
GAMG:  Solving for ILambda_42_0, Initial residual = 0.0380540054, Final residual = 9.15205674e-05, No Iterations 3
GAMG:  Solving for ILambda_43_0, Initial residual = 0.0400895045, Final residual = 7.85654003e-05, No Iterations 3
GAMG:  Solving for ILambda_44_0, Initial residual = 0.0428712373, Final residual = 1.80979461e-05, No Iterations 4
GAMG:  Solving for ILambda_45_0, Initial residual = 0.0439013135, Final residual = 2.7502855e-05, No Iterations 4
GAMG:  Solving for ILambda_46_0, Initial residual = 0.0449099126, Final residual = 3.47661008e-05, No Iterations 4
GAMG:  Solving for ILambda_47_0, Initial residual = 0.0440426232, Final residual = 4.85731905e-05, No Iterations 4
GAMG:  Solving for ILambda_48_0, Initial residual = 0.0504486115, Final residual = 3.90339965e-05, No Iterations 4
GAMG:  Solving for ILambda_49_0, Initial residual = 0.0510723031, Final residual = 2.32150854e-05, No Iterations 4
GAMG:  Solving for ILambda_50_0, Initial residual = 0.0488498549, Final residual = 9.68030653e-05, No Iterations 3
GAMG:  Solving for ILambda_51_0, Initial residual = 0.0433646527, Final residual = 8.77611273e-05, No Iterations 3
GAMG:  Solving for ILambda_52_0, Initial residual = 0.0375176046, Final residual = 6.09507446e-05, No Iterations 3
GAMG:  Solving for ILambda_53_0, Initial residual = 0.0328762052, Final residual = 4.92554507e-05, No Iterations 3
GAMG:  Solving for ILambda_54_0, Initial residual = 0.0341816392, Final residual = 4.95072525e-05, No Iterations 3
GAMG:  Solving for ILambda_55_0, Initial residual = 0.043712104, Final residual = 3.86647388e-05, No Iterations 3
GAMG:  Solving for ILambda_56_0, Initial residual = 0.0525229779, Final residual = 4.07937649e-05, No Iterations 3
GAMG:  Solving for ILambda_57_0, Initial residual = 0.0591476711, Final residual = 5.23840346e-05, No Iterations 3
GAMG:  Solving for ILambda_58_0, Initial residual = 0.061269855, Final residual = 7.53490607e-05, No Iterations 3
GAMG:  Solving for ILambda_59_0, Initial residual = 0.0524516841, Final residual = 1.44576318e-05, No Iterations 4
GAMG:  Solving for ILambda_60_0, Initial residual = 0.0524895207, Final residual = 1.70110965e-05, No Iterations 4
GAMG:  Solving for ILambda_61_0, Initial residual = 0.0617608343, Final residual = 9.46281527e-05, No Iterations 3
GAMG:  Solving for ILambda_62_0, Initial residual = 0.0599074424, Final residual = 7.24171953e-05, No Iterations 3
GAMG:  Solving for ILambda_63_0, Initial residual = 0.0535918591, Final residual = 5.36682399e-05, No Iterations 3
GAMG:  Solving for ILambda_64_0, Initial residual = 0.0443268047, Final residual = 4.69533155e-05, No Iterations 3
GAMG:  Solving for ILambda_65_0, Initial residual = 0.0345437549, Final residual = 5.60837815e-05, No Iterations 3
GAMG:  Solving for ILambda_66_0, Initial residual = 0.0332772233, Final residual = 5.54420648e-05, No Iterations 3
GAMG:  Solving for ILambda_67_0, Initial residual = 0.0377356974, Final residual = 6.91392109e-05, No Iterations 3
GAMG:  Solving for ILambda_68_0, Initial residual = 0.0430805639, Final residual = 1.82659058e-05, No Iterations 4
GAMG:  Solving for ILambda_69_0, Initial residual = 0.048383211, Final residual = 2.00747029e-05, No Iterations 4
GAMG:  Solving for ILambda_70_0, Initial residual = 0.0501200841, Final residual = 2.38443621e-05, No Iterations 4
GAMG:  Solving for ILambda_71_0, Initial residual = 0.0502829548, Final residual = 4.25336425e-05, No Iterations 4
GAMG:  Solving for ILambda_72_0, Initial residual = 0.0487583058, Final residual = 2.2074683e-05, No Iterations 4
GAMG:  Solving for ILambda_73_0, Initial residual = 0.0525829892, Final residual = 8.09139209e-05, No Iterations 3
GAMG:  Solving for ILambda_74_0, Initial residual = 0.0510577887, Final residual = 7.88475167e-05, No Iterations 3
GAMG:  Solving for ILambda_75_0, Initial residual = 0.0430454815, Final residual = 7.21050716e-05, No Iterations 3
GAMG:  Solving for ILambda_76_0, Initial residual = 0.034110487, Final residual = 5.06706067e-05, No Iterations 3
GAMG:  Solving for ILambda_77_0, Initial residual = 0.0260571186, Final residual = 3.40909541e-05, No Iterations 3
GAMG:  Solving for ILambda_78_0, Initial residual = 0.0279711874, Final residual = 3.0380987e-05, No Iterations 3
GAMG:  Solving for ILambda_79_0, Initial residual = 0.0399085806, Final residual = 2.96003153e-05, No Iterations 3
GAMG:  Solving for ILambda_80_0, Initial residual = 0.050337795, Final residual = 3.82396197e-05, No Iterations 3
GAMG:  Solving for ILambda_81_0, Initial residual = 0.0590005313, Final residual = 5.03851475e-05, No Iterations 3
GAMG:  Solving for ILambda_82_0, Initial residual = 0.0618961346, Final residual = 6.78181309e-05, No Iterations 3
GAMG:  Solving for ILambda_83_0, Initial residual = 0.0504353397, Final residual = 8.1450958e-05, No Iterations 3
GAMG:  Solving for ILambda_84_0, Initial residual = 0.0502658103, Final residual = 9.97926096e-05, No Iterations 3
GAMG:  Solving for ILambda_85_0, Initial residual = 0.0627746291, Final residual = 7.45327393e-05, No Iterations 3
GAMG:  Solving for ILambda_86_0, Initial residual = 0.0601343327, Final residual = 5.84921216e-05, No Iterations 3
GAMG:  Solving for ILambda_87_0, Initial residual = 0.051526686, Final residual = 4.67949221e-05, No Iterations 3
GAMG:  Solving for ILambda_88_0, Initial residual = 0.0401034575, Final residual = 3.97366845e-05, No Iterations 3
GAMG:  Solving for ILambda_89_0, Initial residual = 0.0281528355, Final residual = 4.06357309e-05, No Iterations 3
GAMG:  Solving for ILambda_90_0, Initial residual = 0.02635197, Final residual = 4.29363545e-05, No Iterations 3
GAMG:  Solving for ILambda_91_0, Initial residual = 0.0341763241, Final residual = 6.18674486e-05, No Iterations 3
GAMG:  Solving for ILambda_92_0, Initial residual = 0.0427353847, Final residual = 9.50404826e-05, No Iterations 3
GAMG:  Solving for ILambda_93_0, Initial residual = 0.0504853338, Final residual = 9.73800383e-05, No Iterations 3
GAMG:  Solving for ILambda_94_0, Initial residual = 0.0522394511, Final residual = 1.53205842e-05, No Iterations 4
GAMG:  Solving for ILambda_95_0, Initial residual = 0.0491828722, Final residual = 2.50523207e-05, No Iterations 4
GAMG:  Solving for ILambda_96_0, Initial residual = 0.0450222605, Final residual = 7.08951808e-05, No Iterations 3
GAMG:  Solving for ILambda_97_0, Initial residual = 0.0546211974, Final residual = 6.52496696e-05, No Iterations 3
GAMG:  Solving for ILambda_98_0, Initial residual = 0.052333839, Final residual = 6.67550099e-05, No Iterations 3
GAMG:  Solving for ILambda_99_0, Initial residual = 0.042603053, Final residual = 6.41564328e-05, No Iterations 3
GAMG:  Solving for ILambda_100_0, Initial residual = 0.0308738338, Final residual = 4.90449938e-05, No Iterations 3
GAMG:  Solving for ILambda_101_0, Initial residual = 0.0182034164, Final residual = 3.59559303e-05, No Iterations 3
GAMG:  Solving for ILambda_102_0, Initial residual = 0.019308233, Final residual = 3.65449951e-05, No Iterations 3
GAMG:  Solving for ILambda_103_0, Initial residual = 0.0338949485, Final residual = 4.50607589e-05, No Iterations 3
GAMG:  Solving for ILambda_104_0, Initial residual = 0.0461204822, Final residual = 5.65010121e-05, No Iterations 3
GAMG:  Solving for ILambda_105_0, Initial residual = 0.0558199131, Final residual = 7.04063186e-05, No Iterations 3
GAMG:  Solving for ILambda_106_0, Initial residual = 0.0589008127, Final residual = 8.13388689e-05, No Iterations 3
GAMG:  Solving for ILambda_107_0, Initial residual = 0.0436739682, Final residual = 6.39833545e-05, No Iterations 3
GAMG:  Solving for ILambda_108_0, Initial residual = 0.0429197326, Final residual = 5.1628993e-05, No Iterations 3
GAMG:  Solving for ILambda_109_0, Initial residual = 0.0596373563, Final residual = 6.33302446e-05, No Iterations 3
GAMG:  Solving for ILambda_110_0, Initial residual = 0.0566403652, Final residual = 6.16865782e-05, No Iterations 3
GAMG:  Solving for ILambda_111_0, Initial residual = 0.0467516411, Final residual = 6.61100886e-05, No Iterations 3
GAMG:  Solving for ILambda_112_0, Initial residual = 0.0340840717, Final residual = 4.96670493e-05, No Iterations 3
GAMG:  Solving for ILambda_113_0, Initial residual = 0.0192278413, Final residual = 4.43510664e-05, No Iterations 3
GAMG:  Solving for ILambda_114_0, Initial residual = 0.0182178716, Final residual = 5.06580674e-05, No Iterations 3
GAMG:  Solving for ILambda_115_0, Initial residual = 0.0310120464, Final residual = 6.72952232e-05, No Iterations 3
GAMG:  Solving for ILambda_116_0, Initial residual = 0.0427460783, Final residual = 8.95593421e-05, No Iterations 3
GAMG:  Solving for ILambda_117_0, Initial residual = 0.0519796945, Final residual = 1.88298333e-05, No Iterations 4
GAMG:  Solving for ILambda_118_0, Initial residual = 0.0551525371, Final residual = 1.77445991e-05, No Iterations 4
GAMG:  Solving for ILambda_119_0, Initial residual = 0.0458399624, Final residual = 9.05554275e-05, No Iterations 3
GAMG:  Solving for ILambda_120_0, Initial residual = 0.0415120182, Final residual = 6.6407272e-05, No Iterations 3
GAMG:  Solving for ILambda_121_0, Initial residual = 0.0542269389, Final residual = 7.86747292e-05, No Iterations 3
GAMG:  Solving for ILambda_122_0, Initial residual = 0.0516467025, Final residual = 5.80423702e-05, No Iterations 3
GAMG:  Solving for ILambda_123_0, Initial residual = 0.0428246864, Final residual = 4.73608073e-05, No Iterations 3
GAMG:  Solving for ILambda_124_0, Initial residual = 0.0303498121, Final residual = 4.26142082e-05, No Iterations 3
GAMG:  Solving for ILambda_125_0, Initial residual = 0.0172786344, Final residual = 3.34235988e-05, No Iterations 3
GAMG:  Solving for ILambda_126_0, Initial residual = 0.0162429612, Final residual = 3.68558523e-05, No Iterations 3
GAMG:  Solving for ILambda_127_0, Initial residual = 0.0276767079, Final residual = 5.33892052e-05, No Iterations 3
GAMG:  Solving for ILambda_128_0, Initial residual = 0.0380618226, Final residual = 7.33254594e-05, No Iterations 3
GAMG:  Solving for ILambda_129_0, Initial residual = 0.0473210527, Final residual = 8.74015917e-05, No Iterations 3
GAMG:  Solving for ILambda_130_0, Initial residual = 0.0503779708, Final residual = 1.78602088e-05, No Iterations 4
GAMG:  Solving for ILambda_131_0, Initial residual = 0.0383957597, Final residual = 8.47755271e-05, No Iterations 3
GAMG:  Solving for ILambda_132_0, Initial residual = 0.037683698, Final residual = 7.05853514e-05, No Iterations 3
GAMG:  Solving for ILambda_133_0, Initial residual = 0.0507751354, Final residual = 6.81333423e-05, No Iterations 3
GAMG:  Solving for ILambda_134_0, Initial residual = 0.04771009, Final residual = 7.45536871e-05, No Iterations 3
GAMG:  Solving for ILambda_135_0, Initial residual = 0.0385077016, Final residual = 7.7577501e-05, No Iterations 3
GAMG:  Solving for ILambda_136_0, Initial residual = 0.0278223072, Final residual = 5.84886781e-05, No Iterations 3
GAMG:  Solving for ILambda_137_0, Initial residual = 0.0164377241, Final residual = 4.28444334e-05, No Iterations 3
GAMG:  Solving for ILambda_138_0, Initial residual = 0.0174712403, Final residual = 3.82340526e-05, No Iterations 3
GAMG:  Solving for ILambda_139_0, Initial residual = 0.0306466293, Final residual = 4.98772534e-05, No Iterations 3
GAMG:  Solving for ILambda_140_0, Initial residual = 0.0430575511, Final residual = 6.19248204e-05, No Iterations 3
GAMG:  Solving for ILambda_141_0, Initial residual = 0.0516028359, Final residual = 9.57476042e-05, No Iterations 3
GAMG:  Solving for ILambda_142_0, Initial residual = 0.0552989887, Final residual = 1.59463902e-05, No Iterations 4
GAMG:  Solving for ILambda_143_0, Initial residual = 0.0414735504, Final residual = 7.22283594e-05, No Iterations 3
GAMG:  Solving for ILambda_144_0, Initial residual = 0.0406907155, Final residual = 7.20869415e-05, No Iterations 3
GAMG:  Solving for ILambda_145_0, Initial residual = 0.0510504807, Final residual = 6.47864443e-05, No Iterations 3
GAMG:  Solving for ILambda_146_0, Initial residual = 0.0491405445, Final residual = 5.60602139e-05, No Iterations 3
GAMG:  Solving for ILambda_147_0, Initial residual = 0.0422783385, Final residual = 3.64727683e-05, No Iterations 3
GAMG:  Solving for ILambda_148_0, Initial residual = 0.0321302513, Final residual = 3.0908582e-05, No Iterations 3
GAMG:  Solving for ILambda_149_0, Initial residual = 0.0222408925, Final residual = 2.83739802e-05, No Iterations 3
GAMG:  Solving for ILambda_150_0, Initial residual = 0.0210735555, Final residual = 3.28168782e-05, No Iterations 3
GAMG:  Solving for ILambda_151_0, Initial residual = 0.0275274919, Final residual = 4.58641886e-05, No Iterations 3
GAMG:  Solving for ILambda_152_0, Initial residual = 0.0331955834, Final residual = 6.19851982e-05, No Iterations 3
[...]
GAMG:  Solving for ILambda_231_0, Initial residual = 0.364180387, Final residual = 0.000324066561, No Iterations 5
GAMG:  Solving for ILambda_232_0, Initial residual = 0.140958187, Final residual = 0.000287240717, No Iterations 5
GAMG:  Solving for ILambda_239_0, Initial residual = 0.159039704, Final residual = 7.70834012e-05, No Iterations 5
Radiation solver iter: 7
GAMG:  Solving for ILambda_0_0, Initial residual = 0.275579141, Final residual = 0.00475210105, No Iterations 5
GAMG:  Solving for ILambda_25_0, Initial residual = 0.0656977706, Final residual = 0.000139342298, No Iterations 5
GAMG:  Solving for ILambda_31_0, Initial residual = 0.129495492, Final residual = 0.000108756224, No Iterations 5
GAMG:  Solving for ILambda_43_0, Initial residual = 0.0631807924, Final residual = 0.000147253438, No Iterations 5
GAMG:  Solving for ILambda_46_0, Initial residual = 0.175300792, Final residual = 0.00014683107, No Iterations 5
GAMG:  Solving for ILambda_52_0, Initial residual = 0.52018508, Final residual = 3.65425233e-05, No Iterations 5
GAMG:  Solving for ILambda_53_0, Initial residual = 0.204808855, Final residual = 2.75377935e-05, No Iterations 5
GAMG:  Solving for ILambda_54_0, Initial residual = 0.219819871, Final residual = 7.62497459e-05, No Iterations 5
GAMG:  Solving for ILambda_58_0, Initial residual = 0.183512103, Final residual = 2.18102292e-05, No Iterations 5
GAMG:  Solving for ILambda_62_0, Initial residual = 0.225157011, Final residual = 9.94389344e-05, No Iterations 5
GAMG:  Solving for ILambda_65_0, Initial residual = 0.133899872, Final residual = 9.92570247e-05, No Iterations 5
GAMG:  Solving for ILambda_67_0, Initial residual = 0.136971883, Final residual = 7.82553691e-05, No Iterations 4
GAMG:  Solving for ILambda_68_0, Initial residual = 0.071124299, Final residual = 3.87790957e-05, No Iterations 4
GAMG:  Solving for ILambda_71_0, Initial residual = 0.115329945, Final residual = 0.000599372569, No Iterations 5
GAMG:  Solving for ILambda_73_0, Initial residual = 0.09182028, Final residual = 2.1124813e-05, No Iterations 5
GAMG:  Solving for ILambda_74_0, Initial residual = 0.109229019, Final residual = 3.15999142e-05, No Iterations 5
GAMG:  Solving for ILambda_78_0, Initial residual = 0.112552751, Final residual = 8.61652684e-05, No Iterations 4
GAMG:  Solving for ILambda_79_0, Initial residual = 0.056876061, Final residual = 6.65333977e-05, No Iterations 2
GAMG:  Solving for ILambda_85_0, Initial residual = 0.552209473, Final residual = 0.000273978414, No Iterations 5
GAMG:  Solving for ILambda_96_0, Initial residual = 0.27499591, Final residual = 4.1753182e-05, No Iterations 5
GAMG:  Solving for ILambda_100_0, Initial residual = 0.349869275, Final residual = 6.61809458e-05, No Iterations 3
GAMG:  Solving for ILambda_103_0, Initial residual = 0.0684673902, Final residual = 7.35910314e-05, No Iterations 4
GAMG:  Solving for ILambda_105_0, Initial residual = 0.0985920037, Final residual = 0.000482814329, No Iterations 5
GAMG:  Solving for ILambda_107_0, Initial residual = 0.724094252, Final residual = 0.000398454386, No Iterations 5
GAMG:  Solving for ILambda_116_0, Initial residual = 0.123667189, Final residual = 0.000120931681, No Iterations 5
GAMG:  Solving for ILambda_117_0, Initial residual = 0.485613935, Final residual = 0.00268157474, No Iterations 5
GAMG:  Solving for ILambda_118_0, Initial residual = 0.131525622, Final residual = 0.000259485551, No Iterations 5
GAMG:  Solving for ILambda_119_0, Initial residual = 0.123122398, Final residual = 9.19352536e-05, No Iterations 4
GAMG:  Solving for ILambda_128_0, Initial residual = 0.334409158, Final residual = 5.08147243e-05, No Iterations 3
GAMG:  Solving for ILambda_131_0, Initial residual = 0.157680049, Final residual = 0.000514035464, No Iterations 5
GAMG:  Solving for ILambda_132_0, Initial residual = 0.61397712, Final residual = 0.000153753113, No Iterations 5
GAMG:  Solving for ILambda_134_0, Initial residual = 0.00395799788, Final residual = 5.98955795e-05, No Iterations 3
GAMG:  Solving for ILambda_138_0, Initial residual = 0.150874577, Final residual = 7.61488986e-05, No Iterations 5
GAMG:  Solving for ILambda_152_0, Initial residual = 0.178140326, Final residual = 2.52537565e-05, No Iterations 5
GAMG:  Solving for ILambda_153_0, Initial residual = 0.175340411, Final residual = 6.59467111e-05, No Iterations 4
GAMG:  Solving for ILambda_162_0, Initial residual = 0.126464684, Final residual = 5.32587452e-05, No Iterations 5
GAMG:  Solving for ILambda_176_0, Initial residual = 0.627917037, Final residual = 0.000455225401, No Iterations 5
GAMG:  Solving for ILambda_178_0, Initial residual = 0.539134461, Final residual = 0.000358584768, No Iterations 5
GAMG:  Solving for ILambda_179_0, Initial residual = 0.893614663, Final residual = 0.000110839144, No Iterations 5
GAMG:  Solving for ILambda_184_0, Initial residual = 0.0933121202, Final residual = 2.84876626e-05, No Iterations 5
GAMG:  Solving for ILambda_185_0, Initial residual = 0.0950002481, Final residual = 1.98445708e-05, No Iterations 5
GAMG:  Solving for ILambda_186_0, Initial residual = 0.749218178, Final residual = 9.80850395e-05, No Iterations 5
GAMG:  Solving for ILambda_188_0, Initial residual = 0.112632156, Final residual = 4.9846839e-05, No Iterations 5
GAMG:  Solving for ILambda_191_0, Initial residual = 0.345783667, Final residual = 0.000169941353, No Iterations 5
GAMG:  Solving for ILambda_204_0, Initial residual = 0.158298924, Final residual = 0.000294488276, No Iterations 5
GAMG:  Solving for ILambda_224_0, Initial residual = 0.122207484, Final residual = 0.000132585215, No Iterations 5
GAMG:  Solving for ILambda_225_0, Initial residual = 0.460569404, Final residual = 0.000814156348, No Iterations 5
GAMG:  Solving for ILambda_226_0, Initial residual = 0.62360096, Final residual = 0.00137657927, No Iterations 5
GAMG:  Solving for ILambda_227_0, Initial residual = 0.551055072, Final residual = 0.00227119033, No Iterations 5
GAMG:  Solving for ILambda_230_0, Initial residual = 0.451670379, Final residual = 0.000842338512, No Iterations 5
GAMG:  Solving for ILambda_231_0, Initial residual = 0.236259821, Final residual = 0.000211213319, No Iterations 5
GAMG:  Solving for ILambda_232_0, Initial residual = 0.140848852, Final residual = 0.000287022165, No Iterations 5
GAMG:  Solving for ILambda_239_0, Initial residual = 0.159040357, Final residual = 7.70837589e-05, No Iterations 5
Radiation solver iter: 8
GAMG:  Solving for ILambda_0_0, Initial residual = 0.27487086, Final residual = 0.00474659151, No Iterations 5
GAMG:  Solving for ILambda_25_0, Initial residual = 0.0655266246, Final residual = 0.000139639631, No Iterations 5
GAMG:  Solving for ILambda_31_0, Initial residual = 0.129780942, Final residual = 0.000109190631, No Iterations 5
GAMG:  Solving for ILambda_43_0, Initial residual = 0.0632531942, Final residual = 0.000147094015, No Iterations 5
GAMG:  Solving for ILambda_46_0, Initial residual = 0.174445586, Final residual = 0.000142930872, No Iterations 5
GAMG:  Solving for ILambda_52_0, Initial residual = 0.520199442, Final residual = 3.65436569e-05, No Iterations 5
GAMG:  Solving for ILambda_53_0, Initial residual = 0.204828976, Final residual = 2.75507741e-05, No Iterations 5
GAMG:  Solving for ILambda_54_0, Initial residual = 0.219829615, Final residual = 7.62526836e-05, No Iterations 5
GAMG:  Solving for ILambda_58_0, Initial residual = 0.18882225, Final residual = 2.76797736e-05, No Iterations 5
GAMG:  Solving for ILambda_62_0, Initial residual = 0.225157011, Final residual = 9.94389344e-05, No Iterations 5
GAMG:  Solving for ILambda_65_0, Initial residual = 0.133908245, Final residual = 9.92376069e-05, No Iterations 5
GAMG:  Solving for ILambda_67_0, Initial residual = 0.136970936, Final residual = 7.82432224e-05, No Iterations 4
GAMG:  Solving for ILambda_68_0, Initial residual = 0.0727361173, Final residual = 3.96465874e-05, No Iterations 4
GAMG:  Solving for ILambda_71_0, Initial residual = 0.115329952, Final residual = 0.000599372703, No Iterations 5
GAMG:  Solving for ILambda_73_0, Initial residual = 0.0918199623, Final residual = 2.11247033e-05, No Iterations 5
GAMG:  Solving for ILambda_74_0, Initial residual = 0.109228964, Final residual = 3.15999011e-05, No Iterations 5
GAMG:  Solving for ILambda_78_0, Initial residual = 0.112553414, Final residual = 8.61632872e-05, No Iterations 4
GAMG:  Solving for ILambda_79_0, Initial residual = 0.0569283871, Final residual = 6.65881747e-05, No Iterations 2
GAMG:  Solving for ILambda_85_0, Initial residual = 0.552209002, Final residual = 0.000273978129, No Iterations 5
GAMG:  Solving for ILambda_96_0, Initial residual = 0.27499591, Final residual = 4.1753182e-05, No Iterations 5
GAMG:  Solving for ILambda_100_0, Initial residual = 0.623596168, Final residual = 3.30243299e-05, No Iterations 3
GAMG:  Solving for ILambda_103_0, Initial residual = 0.0670004023, Final residual = 7.21318185e-05, No Iterations 4
GAMG:  Solving for ILambda_105_0, Initial residual = 0.0985842486, Final residual = 0.000482774894, No Iterations 5
GAMG:  Solving for ILambda_107_0, Initial residual = 0.724287057, Final residual = 0.000398560351, No Iterations 5
GAMG:  Solving for ILambda_116_0, Initial residual = 0.123912466, Final residual = 0.000122380938, No Iterations 5
GAMG:  Solving for ILambda_117_0, Initial residual = 0.442015083, Final residual = 0.00243780791, No Iterations 5
GAMG:  Solving for ILambda_118_0, Initial residual = 0.131507134, Final residual = 0.000259541563, No Iterations 5
GAMG:  Solving for ILambda_119_0, Initial residual = 0.123194128, Final residual = 9.20980228e-05, No Iterations 4
GAMG:  Solving for ILambda_128_0, Initial residual = 0.330953975, Final residual = 4.95015343e-05, No Iterations 3
GAMG:  Solving for ILambda_131_0, Initial residual = 0.157679682, Final residual = 0.000514031148, No Iterations 5
GAMG:  Solving for ILambda_132_0, Initial residual = 0.615117768, Final residual = 0.000156176953, No Iterations 5
GAMG:  Solving for ILambda_134_0, Initial residual = 0.00451568938, Final residual = 7.51964987e-05, No Iterations 3
GAMG:  Solving for ILambda_138_0, Initial residual = 0.150600916, Final residual = 7.59391283e-05, No Iterations 5
GAMG:  Solving for ILambda_152_0, Initial residual = 0.178140326, Final residual = 2.52537565e-05, No Iterations 5
GAMG:  Solving for ILambda_153_0, Initial residual = 0.17534041, Final residual = 6.59467114e-05, No Iterations 4
GAMG:  Solving for ILambda_162_0, Initial residual = 0.125923716, Final residual = 5.19769424e-05, No Iterations 5
GAMG:  Solving for ILambda_176_0, Initial residual = 0.627917037, Final residual = 0.000455225401, No Iterations 5
GAMG:  Solving for ILambda_178_0, Initial residual = 0.543414898, Final residual = 0.000361423352, No Iterations 5
GAMG:  Solving for ILambda_179_0, Initial residual = 0.893614651, Final residual = 0.000110839142, No Iterations 5
GAMG:  Solving for ILambda_184_0, Initial residual = 0.0935010653, Final residual = 2.81120412e-05, No Iterations 5
GAMG:  Solving for ILambda_185_0, Initial residual = 0.0950018362, Final residual = 1.9849039e-05, No Iterations 5
GAMG:  Solving for ILambda_186_0, Initial residual = 0.749218172, Final residual = 9.80850385e-05, No Iterations 5
GAMG:  Solving for ILambda_188_0, Initial residual = 0.112630606, Final residual = 4.98466884e-05, No Iterations 5
GAMG:  Solving for ILambda_191_0, Initial residual = 0.38073836, Final residual = 9.77336323e-05, No Iterations 5
GAMG:  Solving for ILambda_204_0, Initial residual = 0.168236786, Final residual = 0.000313312925, No Iterations 5
GAMG:  Solving for ILambda_224_0, Initial residual = 0.12223662, Final residual = 0.000132592204, No Iterations 5
GAMG:  Solving for ILambda_225_0, Initial residual = 0.460188785, Final residual = 0.000813418465, No Iterations 5
GAMG:  Solving for ILambda_226_0, Initial residual = 0.623568674, Final residual = 0.00137649862, No Iterations 5
GAMG:  Solving for ILambda_227_0, Initial residual = 0.551055128, Final residual = 0.00227117969, No Iterations 5
GAMG:  Solving for ILambda_230_0, Initial residual = 0.451670097, Final residual = 0.000842326974, No Iterations 5
GAMG:  Solving for ILambda_231_0, Initial residual = 0.363922703, Final residual = 0.000323695397, No Iterations 5
GAMG:  Solving for ILambda_232_0, Initial residual = 0.140786762, Final residual = 0.0002868942, No Iterations 5
GAMG:  Solving for ILambda_239_0, Initial residual = 0.159040646, Final residual = 7.7083858e-05, No Iterations 5
Radiation solver iter: 9
GAMG:  Solving for ILambda_0_0, Initial residual = 0.275579141, Final residual = 0.00475210105, No Iterations 5
GAMG:  Solving for ILambda_25_0, Initial residual = 0.0654779548, Final residual = 0.000139018249, No Iterations 5
GAMG:  Solving for ILambda_31_0, Initial residual = 0.129495352, Final residual = 0.000108757072, No Iterations 5
GAMG:  Solving for ILambda_43_0, Initial residual = 0.0631807915, Final residual = 0.000147253402, No Iterations 5
GAMG:  Solving for ILambda_46_0, Initial residual = 0.174851444, Final residual = 0.000134881326, No Iterations 5
GAMG:  Solving for ILambda_52_0, Initial residual = 0.520189198, Final residual = 3.65427319e-05, No Iterations 5
GAMG:  Solving for ILambda_53_0, Initial residual = 0.204808832, Final residual = 2.75377924e-05, No Iterations 5
GAMG:  Solving for ILambda_54_0, Initial residual = 0.219819871, Final residual = 7.62497459e-05, No Iterations 5
GAMG:  Solving for ILambda_58_0, Initial residual = 0.183511767, Final residual = 2.18098421e-05, No Iterations 5
GAMG:  Solving for ILambda_62_0, Initial residual = 0.225157011, Final residual = 9.94389344e-05, No Iterations 5
GAMG:  Solving for ILambda_65_0, Initial residual = 0.133899898, Final residual = 9.92570471e-05, No Iterations 5
GAMG:  Solving for ILambda_67_0, Initial residual = 0.136972116, Final residual = 7.82549635e-05, No Iterations 4
GAMG:  Solving for ILambda_68_0, Initial residual = 0.0740782093, Final residual = 4.03676702e-05, No Iterations 4
GAMG:  Solving for ILambda_71_0, Initial residual = 0.115329931, Final residual = 0.000599372634, No Iterations 5
GAMG:  Solving for ILambda_73_0, Initial residual = 0.0918202621, Final residual = 2.11248105e-05, No Iterations 5
GAMG:  Solving for ILambda_74_0, Initial residual = 0.109229019, Final residual = 3.15999144e-05, No Iterations 5
GAMG:  Solving for ILambda_78_0, Initial residual = 0.112552936, Final residual = 8.61672095e-05, No Iterations 4
GAMG:  Solving for ILambda_79_0, Initial residual = 0.0568949665, Final residual = 6.65702571e-05, No Iterations 2
GAMG:  Solving for ILambda_85_0, Initial residual = 0.552209364, Final residual = 0.00027397825, No Iterations 5
GAMG:  Solving for ILambda_96_0, Initial residual = 0.27499591, Final residual = 4.1753182e-05, No Iterations 5
GAMG:  Solving for ILambda_100_0, Initial residual = 0.801424504, Final residual = 2.08923394e-05, No Iterations 4
GAMG:  Solving for ILambda_103_0, Initial residual = 0.0655410435, Final residual = 7.06246633e-05, No Iterations 4
GAMG:  Solving for ILambda_105_0, Initial residual = 0.0985968922, Final residual = 0.000482812441, No Iterations 5
GAMG:  Solving for ILambda_107_0, Initial residual = 0.724123253, Final residual = 0.000398467311, No Iterations 5
GAMG:  Solving for ILambda_116_0, Initial residual = 0.123670659, Final residual = 0.000120935089, No Iterations 5
GAMG:  Solving for ILambda_117_0, Initial residual = 0.49106712, Final residual = 0.00270482638, No Iterations 5
GAMG:  Solving for ILambda_118_0, Initial residual = 0.131525458, Final residual = 0.000259487071, No Iterations 5
GAMG:  Solving for ILambda_119_0, Initial residual = 0.123122371, Final residual = 9.19348533e-05, No Iterations 4
GAMG:  Solving for ILambda_128_0, Initial residual = 0.334606123, Final residual = 5.08372285e-05, No Iterations 3
GAMG:  Solving for ILambda_131_0, Initial residual = 0.157680046, Final residual = 0.000514035477, No Iterations 5
GAMG:  Solving for ILambda_132_0, Initial residual = 0.561390495, Final residual = 0.000128018897, No Iterations 5
GAMG:  Solving for ILambda_134_0, Initial residual = 0.00575138541, Final residual = 9.90958942e-05, No Iterations 3
GAMG:  Solving for ILambda_138_0, Initial residual = 0.150875766, Final residual = 7.61488703e-05, No Iterations 5
GAMG:  Solving for ILambda_152_0, Initial residual = 0.178140326, Final residual = 2.52537565e-05, No Iterations 5
GAMG:  Solving for ILambda_153_0, Initial residual = 0.175340411, Final residual = 6.59467111e-05, No Iterations 4
GAMG:  Solving for ILambda_162_0, Initial residual = 0.126464681, Final residual = 5.32587481e-05, No Iterations 5
GAMG:  Solving for ILambda_176_0, Initial residual = 0.627917037, Final residual = 0.000455225401, No Iterations 5
GAMG:  Solving for ILambda_178_0, Initial residual = 0.541307062, Final residual = 0.000360021547, No Iterations 5
GAMG:  Solving for ILambda_179_0, Initial residual = 0.893614666, Final residual = 0.000110839144, No Iterations 5
GAMG:  Solving for ILambda_184_0, Initial residual = 0.0932680546, Final residual = 2.76793192e-05, No Iterations 5
GAMG:  Solving for ILambda_185_0, Initial residual = 0.0950018745, Final residual = 1.98450308e-05, No Iterations 5
GAMG:  Solving for ILambda_186_0, Initial residual = 0.749218178, Final residual = 9.80850389e-05, No Iterations 5
GAMG:  Solving for ILambda_188_0, Initial residual = 0.112632156, Final residual = 4.9846839e-05, No Iterations 5
GAMG:  Solving for ILambda_191_0, Initial residual = 0.378495683, Final residual = 5.2552173e-05, No Iterations 5
GAMG:  Solving for ILambda_204_0, Initial residual = 0.560293401, Final residual = 0.00104478309, No Iterations 5
GAMG:  Solving for ILambda_224_0, Initial residual = 0.1222074, Final residual = 0.000132582946, No Iterations 5
GAMG:  Solving for ILambda_225_0, Initial residual = 0.46059313, Final residual = 0.000814328411, No Iterations 5
GAMG:  Solving for ILambda_226_0, Initial residual = 0.623537184, Final residual = 0.00137641968, No Iterations 5
GAMG:  Solving for ILambda_227_0, Initial residual = 0.551055273, Final residual = 0.00227119085, No Iterations 5
GAMG:  Solving for ILambda_230_0, Initial residual = 0.451669822, Final residual = 0.000842315852, No Iterations 5
GAMG:  Solving for ILambda_231_0, Initial residual = 0.236727025, Final residual = 0.000211535647, No Iterations 5
GAMG:  Solving for ILambda_232_0, Initial residual = 0.140751452, Final residual = 0.000286823845, No Iterations 5
GAMG:  Solving for ILambda_239_0, Initial residual = 0.159040889, Final residual = 7.70840172e-05, No Iterations 5
ExecutionTime = 5847.18 s  ClockTime = 5991 s

regIOobject::readIfModified() : 
    Re-reading object controlDict from file "/home/cong/Desktop/AIVC/Case1/system/controlDict"
yPlusRAS yplusRAS output:
    patch room_SIDE2 y+ : min = 0.246154251, max = 16.0982028, average = 2.86273492
    patch room_FLOOR y+ : min = 0.108629749, max = 9.22900971, average = 2.57177411
    patch room_CEILING y+ : min = 0.410724814, max = 14.6146703, average = 2.82781359
    patch room_BACK y+ : min = 0.239154193, max = 28.6113471, average = 3.42070606
    patch room_SIDE1 y+ : min = 0.237368826, max = 17.2116734, average = 2.860328
    patch manikin y+ : min = 0.023875235, max = 6.8202077, average = 0.665823923
Time = 4211

ExecutionTime = 5877.72 s  ClockTime = 6023 s

yPlusRAS yplusRAS output:
    patch room_SIDE2 y+ : min = 0.246154251, max = 16.0982028, average = 2.86273492
    patch room_FLOOR y+ : min = 0.108629749, max = 9.22900971, average = 2.57177411
    patch room_CEILING y+ : min = 0.410724814, max = 14.6146703, average = 2.82781359
    patch room_BACK y+ : min = 0.239154193, max = 28.6113471, average = 3.42070606
    patch room_SIDE1 y+ : min = 0.237368826, max = 17.2116734, average = 2.860328
    patch manikin y+ : min = 0.023875235, max = 6.8202077, average = 0.665823923
    writing field yPlusRAS

End

Finalising parallel run
