/*---------------------------------------------------------------------------*\
| =========                 |                                                 |
| \\      /  F ield         | OpenFOAM: The Open Source CFD Toolbox           |
|  \\    /   O peration     | Version:  2.3.1                                 |
|   \\  /    A nd           | Web:      www.OpenFOAM.org                      |
|    \\/     M anipulation  |                                                 |
\*---------------------------------------------------------------------------*/
Build  : 2.3.1-bcfaaa7b8660
Exec   : buoyantSimpleFoam -parallel
Date   : Apr 16 2017
Time   : 19:09:19
Host   : "ubuntu"
PID    : 2883
Case   : /home/cong/Desktop/AIVC/Case1
nProcs : 4
Slaves : 
3
(
"ubuntu.2884"
"ubuntu.2885"
"ubuntu.2886"
)

Pstream initialized with:
    floatTransfer      : 0
    nProcsSimpleSum    : 0
    commsType          : nonBlocking
    polling iterations : 0
sigFpe : Enabling floating point exception trapping (FOAM_SIGFPE).
fileModificationChecking : Monitoring run-time modified files using timeStampMaster
allowSystemOperations : Allowing user-supplied system call operations

// * * * * * * * * * * * * * * * * * * * * * * * * * * * * * * * * * * * * * //
Create time

Create mesh for time = 4000


Reading g
Reading thermophysical properties

Selecting thermodynamics package 
{
    type            heRhoThermo;
    mixture         pureMixture;
    transport       const;
    thermo          hConst;
    equationOfState perfectGas;
    specie          specie;
    energy          sensibleEnthalpy;
}

Reading field U

Reading/calculating face flux field phi

Creating turbulence model

Selecting RAS turbulence model kEpsilon
kEpsilonCoeffs
{
    Cmu             0.09;
    C1              1.44;
    C2              1.92;
    C3              -0.33;
    sigmak          1;
    sigmaEps        1.3;
    Prt             1;
}

Calculating field g.h

Reading field p_rgh

No finite volume options present

Selecting radiationModel fvDOM
Selecting absorptionEmissionModel none
Selecting scatterModel none
Selecting sootModel none
fvDOM : Allocated 240 rays with average orientation:
	I0 : omega : 	0.0128133741
	I1 : omega : 	0.0128133741
	I2 : omega : 	0.0128133741
	I3 : omega : 	0.0128133741
	I4 : omega : 	0.0128133741
	I5 : omega : 	0.0128133741
	I6 : omega : 	0.0128133741
	I7 : omega : 	0.0128133741
	I8 : omega : 	0.0128133741
	I9 : omega : 	0.0128133741
	I10 : omega : 	0.0128133741
	I11 : omega : 	0.0128133741
	I12 : omega : 	0.0128133741
	I13 : omega : 	0.0128133741
	I14 : omega : 	0.0128133741
	I15 : omega : 	0.0128133741
	I16 : omega : 	0.0128133741
	I17 : omega : 	0.0128133741
	I18 : omega : 	0.0128133741
	I19 : omega : 	0.0128133741
	I20 : omega : 	0.0128133741
	I21 : omega : 	0.0128133741
	I22 : omega : 	0.0128133741
	I23 : omega : 	0.0128133741
	I24 : omega : 	0.0371858599
	I25 : omega : 	0.0371858599
	I26 : omega : 	0.0371858599
	I27 : omega : 	0.0371858599
	I28 : omega : 	0.0371858599
	I29 : omega : 	0.0371858599
	I30 : omega : 	0.0371858599
	I31 : omega : 	0.0371858599
	I32 : omega : 	0.0371858599
	I33 : omega : 	0.0371858599
	I34 : omega : 	0.0371858599
	I35 : omega : 	0.0371858599
	I36 : omega : 	0.0371858599
	I37 : omega : 	0.0371858599
	I38 : omega : 	0.0371858599
	I39 : omega : 	0.0371858599
	I40 : omega : 	0.0371858599
	I41 : omega : 	0.0371858599
	I42 : omega : 	0.0371858599
	I43 : omega : 	0.0371858599
	I44 : omega : 	0.0371858599
	I45 : omega : 	0.0371858599
	I46 : omega : 	0.0371858599
	I47 : omega : 	0.0371858599
	I48 : omega : 	0.0579183346
	I49 : omega : 	0.0579183346
	I50 : omega : 	0.0579183346
	I51 : omega : 	0.0579183346
	I52 : omega : 	0.0579183346
	I53 : omega : 	0.0579183346
	I54 : omega : 	0.0579183346
	I55 : omega : 	0.0579183346
	I56 : omega : 	0.0579183346
	I57 : omega : 	0.0579183346
	I58 : omega : 	0.0579183346
	I59 : omega : 	0.0579183346
	I60 : omega : 	0.0579183346
	I61 : omega : 	0.0579183346
	I62 : omega : 	0.0579183346
	I63 : omega : 	0.0579183346
	I64 : omega : 	0.0579183346
	I65 : omega : 	0.0579183346
	I66 : omega : 	0.0579183346
	I67 : omega : 	0.0579183346
	I68 : omega : 	0.0579183346
	I69 : omega : 	0.0579183346
	I70 : omega : 	0.0579183346
	I71 : omega : 	0.0579183346
	I72 : omega : 	0.0729813593
	I73 : omega : 	0.0729813593
	I74 : omega : 	0.0729813593
	I75 : omega : 	0.0729813593
	I76 : omega : 	0.0729813593
	I77 : omega : 	0.0729813593
	I78 : omega : 	0.0729813593
	I79 : omega : 	0.0729813593
	I80 : omega : 	0.0729813593
	I81 : omega : 	0.0729813593
	I82 : omega : 	0.0729813593
	I83 : omega : 	0.0729813593
	I84 : omega : 	0.0729813593
	I85 : omega : 	0.0729813593
	I86 : omega : 	0.0729813593
	I87 : omega : 	0.0729813593
	I88 : omega : 	0.0729813593
	I89 : omega : 	0.0729813593
	I90 : omega : 	0.0729813593
	I91 : omega : 	0.0729813593
	I92 : omega : 	0.0729813593
	I93 : omega : 	0.0729813593
	I94 : omega : 	0.0729813593
	I95 : omega : 	0.0729813593
	I96 : omega : 	0.0809004599
	I97 : omega : 	0.0809004599
	I98 : omega : 	0.0809004599
	I99 : omega : 	0.0809004599
	I100 : omega : 	0.0809004599
	I101 : omega : 	0.0809004599
	I102 : omega : 	0.0809004599
	I103 : omega : 	0.0809004599
	I104 : omega : 	0.0809004599
	I105 : omega : 	0.0809004599
	I106 : omega : 	0.0809004599
	I107 : omega : 	0.0809004599
	I108 : omega : 	0.0809004599
	I109 : omega : 	0.0809004599
	I110 : omega : 	0.0809004599
	I111 : omega : 	0.0809004599
	I112 : omega : 	0.0809004599
	I113 : omega : 	0.0809004599
	I114 : omega : 	0.0809004599
	I115 : omega : 	0.0809004599
	I116 : omega : 	0.0809004599
	I117 : omega : 	0.0809004599
	I118 : omega : 	0.0809004599
	I119 : omega : 	0.0809004599
	I120 : omega : 	0.0809004599
	I121 : omega : 	0.0809004599
	I122 : omega : 	0.0809004599
	I123 : omega : 	0.0809004599
	I124 : omega : 	0.0809004599
	I125 : omega : 	0.0809004599
	I126 : omega : 	0.0809004599
	I127 : omega : 	0.0809004599
	I128 : omega : 	0.0809004599
	I129 : omega : 	0.0809004599
	I130 : omega : 	0.0809004599
	I131 : omega : 	0.0809004599
	I132 : omega : 	0.0809004599
	I133 : omega : 	0.0809004599
	I134 : omega : 	0.0809004599
	I135 : omega : 	0.0809004599
	I136 : omega : 	0.0809004599
	I137 : omega : 	0.0809004599
	I138 : omega : 	0.0809004599
	I139 : omega : 	0.0809004599
	I140 : omega : 	0.0809004599
	I141 : omega : 	0.0809004599
	I142 : omega : 	0.0809004599
	I143 : omega : 	0.0809004599
	I144 : omega : 	0.0729813593
	I145 : omega : 	0.0729813593
	I146 : omega : 	0.0729813593
	I147 : omega : 	0.0729813593
	I148 : omega : 	0.0729813593
	I149 : omega : 	0.0729813593
	I150 : omega : 	0.0729813593
	I151 : omega : 	0.0729813593
	I152 : omega : 	0.0729813593
	I153 : omega : 	0.0729813593
	I154 : omega : 	0.0729813593
	I155 : omega : 	0.0729813593
	I156 : omega : 	0.0729813593
	I157 : omega : 	0.0729813593
	I158 : omega : 	0.0729813593
	I159 : omega : 	0.0729813593
	I160 : omega : 	0.0729813593
	I161 : omega : 	0.0729813593
	I162 : omega : 	0.0729813593
	I163 : omega : 	0.0729813593
	I164 : omega : 	0.0729813593
	I165 : omega : 	0.0729813593
	I166 : omega : 	0.0729813593
	I167 : omega : 	0.0729813593
	I168 : omega : 	0.0579183346
	I169 : omega : 	0.0579183346
	I170 : omega : 	0.0579183346
	I171 : omega : 	0.0579183346
	I172 : omega : 	0.0579183346
	I173 : omega : 	0.0579183346
	I174 : omega : 	0.0579183346
	I175 : omega : 	0.0579183346
	I176 : omega : 	0.0579183346
	I177 : omega : 	0.0579183346
	I178 : omega : 	0.0579183346
	I179 : omega : 	0.0579183346
	I180 : omega : 	0.0579183346
	I181 : omega : 	0.0579183346
	I182 : omega : 	0.0579183346
	I183 : omega : 	0.0579183346
	I184 : omega : 	0.0579183346
	I185 : omega : 	0.0579183346
	I186 : omega : 	0.0579183346
	I187 : omega : 	0.0579183346
	I188 : omega : 	0.0579183346
	I189 : omega : 	0.0579183346
	I190 : omega : 	0.0579183346
	I191 : omega : 	0.0579183346
	I192 : omega : 	0.0371858599
	I193 : omega : 	0.0371858599
	I194 : omega : 	0.0371858599
	I195 : omega : 	0.0371858599
	I196 : omega : 	0.0371858599
	I197 : omega : 	0.0371858599
	I198 : omega : 	0.0371858599
	I199 : omega : 	0.0371858599
	I200 : omega : 	0.0371858599
	I201 : omega : 	0.0371858599
	I202 : omega : 	0.0371858599
	I203 : omega : 	0.0371858599
	I204 : omega : 	0.0371858599
	I205 : omega : 	0.0371858599
	I206 : omega : 	0.0371858599
	I207 : omega : 	0.0371858599
	I208 : omega : 	0.0371858599
	I209 : omega : 	0.0371858599
	I210 : omega : 	0.0371858599
	I211 : omega : 	0.0371858599
	I212 : omega : 	0.0371858599
	I213 : omega : 	0.0371858599
	I214 : omega : 	0.0371858599
	I215 : omega : 	0.0371858599
	I216 : omega : 	0.0128133741
	I217 : omega : 	0.0128133741
	I218 : omega : 	0.0128133741
	I219 : omega : 	0.0128133741
	I220 : omega : 	0.0128133741
	I221 : omega : 	0.0128133741
	I222 : omega : 	0.0128133741
	I223 : omega : 	0.0128133741
	I224 : omega : 	0.0128133741
	I225 : omega : 	0.0128133741
	I226 : omega : 	0.0128133741
	I227 : omega : 	0.0128133741
	I228 : omega : 	0.0128133741
	I229 : omega : 	0.0128133741
	I230 : omega : 	0.0128133741
	I231 : omega : 	0.0128133741
	I232 : omega : 	0.0128133741
	I233 : omega : 	0.0128133741
	I234 : omega : 	0.0128133741
	I235 : omega : 	0.0128133741
	I236 : omega : 	0.0128133741
	I237 : omega : 	0.0128133741
	I238 : omega : 	0.0128133741
	I239 : omega : 	0.0128133741


SIMPLE: convergence criteria
    field "(p_rgh|p)"	 tolerance 1e-07
    field U	 tolerance 1e-08
    field h	 tolerance 1e-08
    field "(k|epsilon|omega)"	 tolerance 1e-08


Starting time loop

Time = 4001

DILUPBiCG:  Solving for Ux, Initial residual = 0.00155970865, Final residual = 4.55464111e-05, No Iterations 1
DILUPBiCG:  Solving for Uy, Initial residual = 0.000975897375, Final residual = 6.50115755e-06, No Iterations 1
DILUPBiCG:  Solving for Uz, Initial residual = 0.00157734564, Final residual = 2.18755179e-05, No Iterations 1
DILUPBiCG:  Solving for h, Initial residual = 6.95096171e-05, Final residual = 9.31870365e-07, No Iterations 1
Radiation solver iter: 0
GAMG:  Solving for ILambda_0_0, Initial residual = 1, Final residual = 4.10801399e-05, No Iterations 5
GAMG:  Solving for ILambda_1_0, Initial residual = 1, Final residual = 7.97654779e-05, No Iterations 4
GAMG:  Solving for ILambda_2_0, Initial residual = 1, Final residual = 6.10484e-05, No Iterations 4
GAMG:  Solving for ILambda_3_0, Initial residual = 1, Final residual = 5.23759466e-05, No Iterations 4
GAMG:  Solving for ILambda_4_0, Initial residual = 1, Final residual = 5.41209581e-05, No Iterations 4
GAMG:  Solving for ILambda_5_0, Initial residual = 1, Final residual = 8.06548277e-05, No Iterations 4
GAMG:  Solving for ILambda_6_0, Initial residual = 1, Final residual = 7.04302685e-05, No Iterations 4
GAMG:  Solving for ILambda_7_0, Initial residual = 1, Final residual = 3.81818735e-05, No Iterations 4
GAMG:  Solving for ILambda_8_0, Initial residual = 1, Final residual = 2.8332231e-05, No Iterations 4
GAMG:  Solving for ILambda_9_0, Initial residual = 1, Final residual = 2.66783722e-05, No Iterations 4
GAMG:  Solving for ILambda_10_0, Initial residual = 1, Final residual = 3.94059788e-05, No Iterations 4
GAMG:  Solving for ILambda_11_0, Initial residual = 1, Final residual = 8.6868749e-05, No Iterations 4
GAMG:  Solving for ILambda_12_0, Initial residual = 1, Final residual = 7.94131724e-05, No Iterations 4
GAMG:  Solving for ILambda_13_0, Initial residual = 1, Final residual = 3.88468034e-05, No Iterations 4
GAMG:  Solving for ILambda_14_0, Initial residual = 1, Final residual = 2.97244408e-05, No Iterations 4
GAMG:  Solving for ILambda_15_0, Initial residual = 1, Final residual = 2.90969906e-05, No Iterations 4
GAMG:  Solving for ILambda_16_0, Initial residual = 1, Final residual = 3.99868099e-05, No Iterations 4
GAMG:  Solving for ILambda_17_0, Initial residual = 1, Final residual = 8.8783021e-05, No Iterations 4
GAMG:  Solving for ILambda_18_0, Initial residual = 1, Final residual = 9.10897626e-05, No Iterations 4
GAMG:  Solving for ILambda_19_0, Initial residual = 1, Final residual = 5.65287194e-05, No Iterations 4
GAMG:  Solving for ILambda_20_0, Initial residual = 1, Final residual = 5.3034849e-05, No Iterations 4
GAMG:  Solving for ILambda_21_0, Initial residual = 1, Final residual = 6.08065835e-05, No Iterations 4
GAMG:  Solving for ILambda_22_0, Initial residual = 1, Final residual = 7.82051562e-05, No Iterations 4
GAMG:  Solving for ILambda_23_0, Initial residual = 1, Final residual = 4.30789952e-05, No Iterations 5
GAMG:  Solving for ILambda_24_0, Initial residual = 1, Final residual = 3.22482723e-05, No Iterations 5
GAMG:  Solving for ILambda_25_0, Initial residual = 1, Final residual = 6.4166936e-05, No Iterations 4
GAMG:  Solving for ILambda_26_0, Initial residual = 1, Final residual = 4.58091725e-05, No Iterations 4
GAMG:  Solving for ILambda_27_0, Initial residual = 1, Final residual = 3.03722733e-05, No Iterations 4
GAMG:  Solving for ILambda_28_0, Initial residual = 1, Final residual = 2.23080585e-05, No Iterations 4
GAMG:  Solving for ILambda_29_0, Initial residual = 1, Final residual = 3.08913607e-05, No Iterations 4
GAMG:  Solving for ILambda_30_0, Initial residual = 1, Final residual = 2.96362003e-05, No Iterations 4
GAMG:  Solving for ILambda_31_0, Initial residual = 1, Final residual = 1.41991154e-05, No Iterations 4
GAMG:  Solving for ILambda_32_0, Initial residual = 1, Final residual = 9.07498926e-05, No Iterations 3
GAMG:  Solving for ILambda_33_0, Initial residual = 1, Final residual = 1.28761274e-05, No Iterations 4
GAMG:  Solving for ILambda_34_0, Initial residual = 1, Final residual = 2.18650275e-05, No Iterations 4
GAMG:  Solving for ILambda_35_0, Initial residual = 1, Final residual = 8.94110876e-05, No Iterations 4
GAMG:  Solving for ILambda_36_0, Initial residual = 1, Final residual = 8.88502826e-05, No Iterations 4
GAMG:  Solving for ILambda_37_0, Initial residual = 1, Final residual = 2.57732614e-05, No Iterations 4
GAMG:  Solving for ILambda_38_0, Initial residual = 1, Final residual = 1.60426983e-05, No Iterations 4
GAMG:  Solving for ILambda_39_0, Initial residual = 1, Final residual = 1.4299204e-05, No Iterations 4
GAMG:  Solving for ILambda_40_0, Initial residual = 1, Final residual = 1.53679277e-05, No Iterations 4
GAMG:  Solving for ILambda_41_0, Initial residual = 1, Final residual = 3.80934736e-05, No Iterations 4
GAMG:  Solving for ILambda_42_0, Initial residual = 1, Final residual = 4.18109291e-05, No Iterations 4
GAMG:  Solving for ILambda_43_0, Initial residual = 1, Final residual = 2.61238206e-05, No Iterations 4
GAMG:  Solving for ILambda_44_0, Initial residual = 1, Final residual = 3.54341709e-05, No Iterations 4
GAMG:  Solving for ILambda_45_0, Initial residual = 1, Final residual = 5.21341447e-05, No Iterations 4
GAMG:  Solving for ILambda_46_0, Initial residual = 1, Final residual = 8.04444851e-05, No Iterations 4
GAMG:  Solving for ILambda_47_0, Initial residual = 1, Final residual = 3.38298509e-05, No Iterations 5
GAMG:  Solving for ILambda_48_0, Initial residual = 1, Final residual = 7.20218983e-05, No Iterations 4
GAMG:  Solving for ILambda_49_0, Initial residual = 1, Final residual = 3.83476776e-05, No Iterations 4
GAMG:  Solving for ILambda_50_0, Initial residual = 1, Final residual = 2.47411669e-05, No Iterations 4
GAMG:  Solving for ILambda_51_0, Initial residual = 1, Final residual = 2.25025761e-05, No Iterations 4
GAMG:  Solving for ILambda_52_0, Initial residual = 1, Final residual = 1.80581462e-05, No Iterations 4
GAMG:  Solving for ILambda_53_0, Initial residual = 1, Final residual = 2.03811651e-05, No Iterations 4
GAMG:  Solving for ILambda_54_0, Initial residual = 1, Final residual = 1.97496655e-05, No Iterations 4
GAMG:  Solving for ILambda_55_0, Initial residual = 1, Final residual = 7.76511778e-05, No Iterations 3
GAMG:  Solving for ILambda_56_0, Initial residual = 1, Final residual = 7.25212178e-05, No Iterations 3
GAMG:  Solving for ILambda_57_0, Initial residual = 1, Final residual = 9.63135624e-05, No Iterations 3
GAMG:  Solving for ILambda_58_0, Initial residual = 1, Final residual = 1.56133533e-05, No Iterations 4
GAMG:  Solving for ILambda_59_0, Initial residual = 1, Final residual = 3.96219065e-05, No Iterations 4
GAMG:  Solving for ILambda_60_0, Initial residual = 1, Final residual = 4.30490614e-05, No Iterations 4
GAMG:  Solving for ILambda_61_0, Initial residual = 1, Final residual = 1.91385342e-05, No Iterations 4
GAMG:  Solving for ILambda_62_0, Initial residual = 1, Final residual = 1.32289096e-05, No Iterations 4
GAMG:  Solving for ILambda_63_0, Initial residual = 1, Final residual = 8.47801208e-05, No Iterations 3
GAMG:  Solving for ILambda_64_0, Initial residual = 1, Final residual = 9.22883164e-05, No Iterations 3
GAMG:  Solving for ILambda_65_0, Initial residual = 1, Final residual = 2.35509768e-05, No Iterations 4
GAMG:  Solving for ILambda_66_0, Initial residual = 1, Final residual = 2.52197279e-05, No Iterations 4
GAMG:  Solving for ILambda_67_0, Initial residual = 1, Final residual = 2.28606402e-05, No Iterations 4
GAMG:  Solving for ILambda_68_0, Initial residual = 1, Final residual = 2.7391566e-05, No Iterations 4
GAMG:  Solving for ILambda_69_0, Initial residual = 1, Final residual = 3.07004416e-05, No Iterations 4
GAMG:  Solving for ILambda_70_0, Initial residual = 1, Final residual = 4.84070713e-05, No Iterations 4
GAMG:  Solving for ILambda_71_0, Initial residual = 1, Final residual = 7.79693047e-05, No Iterations 4
GAMG:  Solving for ILambda_72_0, Initial residual = 1, Final residual = 4.92655662e-05, No Iterations 4
GAMG:  Solving for ILambda_73_0, Initial residual = 1, Final residual = 2.35041251e-05, No Iterations 4
GAMG:  Solving for ILambda_74_0, Initial residual = 1, Final residual = 1.94283744e-05, No Iterations 4
GAMG:  Solving for ILambda_75_0, Initial residual = 1, Final residual = 1.9428419e-05, No Iterations 4
GAMG:  Solving for ILambda_76_0, Initial residual = 1, Final residual = 1.73275169e-05, No Iterations 4
GAMG:  Solving for ILambda_77_0, Initial residual = 1, Final residual = 1.5889976e-05, No Iterations 4
GAMG:  Solving for ILambda_78_0, Initial residual = 1, Final residual = 9.4391268e-05, No Iterations 3
GAMG:  Solving for ILambda_79_0, Initial residual = 1, Final residual = 7.5196397e-05, No Iterations 3
GAMG:  Solving for ILambda_80_0, Initial residual = 1, Final residual = 7.59799622e-05, No Iterations 3
GAMG:  Solving for ILambda_81_0, Initial residual = 1, Final residual = 9.41625743e-05, No Iterations 3
GAMG:  Solving for ILambda_82_0, Initial residual = 1, Final residual = 1.56569385e-05, No Iterations 4
GAMG:  Solving for ILambda_83_0, Initial residual = 1, Final residual = 1.92519225e-05, No Iterations 4
GAMG:  Solving for ILambda_84_0, Initial residual = 1, Final residual = 2.22237821e-05, No Iterations 4
GAMG:  Solving for ILambda_85_0, Initial residual = 1, Final residual = 1.64782562e-05, No Iterations 4
GAMG:  Solving for ILambda_86_0, Initial residual = 1, Final residual = 1.28862653e-05, No Iterations 4
GAMG:  Solving for ILambda_87_0, Initial residual = 1, Final residual = 8.43718237e-05, No Iterations 3
GAMG:  Solving for ILambda_88_0, Initial residual = 1, Final residual = 9.11274799e-05, No Iterations 3
GAMG:  Solving for ILambda_89_0, Initial residual = 1, Final residual = 1.50185204e-05, No Iterations 4
GAMG:  Solving for ILambda_90_0, Initial residual = 1, Final residual = 1.9868896e-05, No Iterations 4
GAMG:  Solving for ILambda_91_0, Initial residual = 1, Final residual = 2.03620436e-05, No Iterations 4
GAMG:  Solving for ILambda_92_0, Initial residual = 1, Final residual = 2.4234919e-05, No Iterations 4
GAMG:  Solving for ILambda_93_0, Initial residual = 1, Final residual = 2.65022804e-05, No Iterations 4
GAMG:  Solving for ILambda_94_0, Initial residual = 1, Final residual = 3.19163462e-05, No Iterations 4
GAMG:  Solving for ILambda_95_0, Initial residual = 1, Final residual = 5.45054897e-05, No Iterations 4
GAMG:  Solving for ILambda_96_0, Initial residual = 1, Final residual = 3.78952685e-05, No Iterations 4
GAMG:  Solving for ILambda_97_0, Initial residual = 1, Final residual = 2.63328958e-05, No Iterations 4
GAMG:  Solving for ILambda_98_0, Initial residual = 1, Final residual = 2.64706269e-05, No Iterations 4
GAMG:  Solving for ILambda_99_0, Initial residual = 1, Final residual = 2.84926778e-05, No Iterations 4
GAMG:  Solving for ILambda_100_0, Initial residual = 1, Final residual = 2.44019892e-05, No Iterations 4
GAMG:  Solving for ILambda_101_0, Initial residual = 1, Final residual = 2.02583517e-05, No Iterations 4
GAMG:  Solving for ILambda_102_0, Initial residual = 1, Final residual = 1.90157593e-05, No Iterations 4
GAMG:  Solving for ILambda_103_0, Initial residual = 1, Final residual = 2.22298415e-05, No Iterations 4
GAMG:  Solving for ILambda_104_0, Initial residual = 1, Final residual = 2.86625359e-05, No Iterations 4
GAMG:  Solving for ILambda_105_0, Initial residual = 1, Final residual = 3.41906768e-05, No Iterations 4
GAMG:  Solving for ILambda_106_0, Initial residual = 1, Final residual = 3.81571859e-05, No Iterations 4
GAMG:  Solving for ILambda_107_0, Initial residual = 1, Final residual = 2.63391927e-05, No Iterations 4
GAMG:  Solving for ILambda_108_0, Initial residual = 1, Final residual = 2.38025859e-05, No Iterations 4
GAMG:  Solving for ILambda_109_0, Initial residual = 1, Final residual = 2.21745876e-05, No Iterations 4
GAMG:  Solving for ILambda_110_0, Initial residual = 1, Final residual = 2.49998193e-05, No Iterations 4
GAMG:  Solving for ILambda_111_0, Initial residual = 1, Final residual = 2.50313298e-05, No Iterations 4
GAMG:  Solving for ILambda_112_0, Initial residual = 1, Final residual = 2.41755568e-05, No Iterations 4
GAMG:  Solving for ILambda_113_0, Initial residual = 1, Final residual = 2.64326691e-05, No Iterations 4
GAMG:  Solving for ILambda_114_0, Initial residual = 1, Final residual = 2.8813309e-05, No Iterations 4
GAMG:  Solving for ILambda_115_0, Initial residual = 1, Final residual = 3.19952518e-05, No Iterations 4
GAMG:  Solving for ILambda_116_0, Initial residual = 1, Final residual = 4.28284456e-05, No Iterations 4
GAMG:  Solving for ILambda_117_0, Initial residual = 1, Final residual = 5.17136847e-05, No Iterations 4
GAMG:  Solving for ILambda_118_0, Initial residual = 1, Final residual = 5.71849411e-05, No Iterations 4
GAMG:  Solving for ILambda_119_0, Initial residual = 1, Final residual = 4.86033866e-05, No Iterations 4
GAMG:  Solving for ILambda_120_0, Initial residual = 1, Final residual = 2.66459906e-05, No Iterations 4
GAMG:  Solving for ILambda_121_0, Initial residual = 1, Final residual = 2.47962213e-05, No Iterations 4
GAMG:  Solving for ILambda_122_0, Initial residual = 1, Final residual = 2.99556006e-05, No Iterations 4
GAMG:  Solving for ILambda_123_0, Initial residual = 1, Final residual = 3.25971994e-05, No Iterations 4
GAMG:  Solving for ILambda_124_0, Initial residual = 1, Final residual = 2.66008078e-05, No Iterations 4
GAMG:  Solving for ILambda_125_0, Initial residual = 1, Final residual = 2.14584951e-05, No Iterations 4
GAMG:  Solving for ILambda_126_0, Initial residual = 1, Final residual = 2.74647338e-05, No Iterations 4
GAMG:  Solving for ILambda_127_0, Initial residual = 1, Final residual = 3.18001273e-05, No Iterations 4
GAMG:  Solving for ILambda_128_0, Initial residual = 1, Final residual = 4.31802821e-05, No Iterations 4
GAMG:  Solving for ILambda_129_0, Initial residual = 1, Final residual = 4.85206338e-05, No Iterations 4
GAMG:  Solving for ILambda_130_0, Initial residual = 1, Final residual = 6.02300522e-05, No Iterations 4
GAMG:  Solving for ILambda_131_0, Initial residual = 1, Final residual = 5.32682673e-05, No Iterations 4
GAMG:  Solving for ILambda_132_0, Initial residual = 1, Final residual = 4.53550377e-05, No Iterations 4
GAMG:  Solving for ILambda_133_0, Initial residual = 1, Final residual = 3.75639124e-05, No Iterations 4
GAMG:  Solving for ILambda_134_0, Initial residual = 1, Final residual = 3.800428e-05, No Iterations 4
GAMG:  Solving for ILambda_135_0, Initial residual = 1, Final residual = 3.58913979e-05, No Iterations 4
GAMG:  Solving for ILambda_136_0, Initial residual = 1, Final residual = 3.18226156e-05, No Iterations 4
GAMG:  Solving for ILambda_137_0, Initial residual = 1, Final residual = 3.07908193e-05, No Iterations 4
GAMG:  Solving for ILambda_138_0, Initial residual = 1, Final residual = 2.58159682e-05, No Iterations 4
GAMG:  Solving for ILambda_139_0, Initial residual = 1, Final residual = 2.84128788e-05, No Iterations 4
GAMG:  Solving for ILambda_140_0, Initial residual = 1, Final residual = 3.65680791e-05, No Iterations 4
GAMG:  Solving for ILambda_141_0, Initial residual = 1, Final residual = 4.38166153e-05, No Iterations 4
GAMG:  Solving for ILambda_142_0, Initial residual = 1, Final residual = 3.78243251e-05, No Iterations 4
GAMG:  Solving for ILambda_143_0, Initial residual = 1, Final residual = 2.7901878e-05, No Iterations 4
GAMG:  Solving for ILambda_144_0, Initial residual = 1, Final residual = 1.86809963e-05, No Iterations 4
GAMG:  Solving for ILambda_145_0, Initial residual = 1, Final residual = 1.73342302e-05, No Iterations 4
GAMG:  Solving for ILambda_146_0, Initial residual = 1, Final residual = 1.43781795e-05, No Iterations 4
GAMG:  Solving for ILambda_147_0, Initial residual = 1, Final residual = 9.23542081e-05, No Iterations 3
GAMG:  Solving for ILambda_148_0, Initial residual = 1, Final residual = 9.03455004e-05, No Iterations 3
GAMG:  Solving for ILambda_149_0, Initial residual = 1, Final residual = 1.67134155e-05, No Iterations 4
GAMG:  Solving for ILambda_150_0, Initial residual = 1, Final residual = 1.83694378e-05, No Iterations 4
GAMG:  Solving for ILambda_151_0, Initial residual = 1, Final residual = 1.92986626e-05, No Iterations 4
GAMG:  Solving for ILambda_152_0, Initial residual = 1, Final residual = 2.89063177e-05, No Iterations 4
GAMG:  Solving for ILambda_153_0, Initial residual = 1, Final residual = 3.67759783e-05, No Iterations 4
GAMG:  Solving for ILambda_154_0, Initial residual = 1, Final residual = 3.82088146e-05, No Iterations 4
GAMG:  Solving for ILambda_155_0, Initial residual = 1, Final residual = 5.65084042e-05, No Iterations 4
GAMG:  Solving for ILambda_156_0, Initial residual = 1, Final residual = 5.47234551e-05, No Iterations 4
GAMG:  Solving for ILambda_157_0, Initial residual = 1, Final residual = 3.27301238e-05, No Iterations 4
GAMG:  Solving for ILambda_158_0, Initial residual = 1, Final residual = 3.10063797e-05, No Iterations 4
GAMG:  Solving for ILambda_159_0, Initial residual = 1, Final residual = 2.56870191e-05, No Iterations 4
GAMG:  Solving for ILambda_160_0, Initial residual = 1, Final residual = 1.78112364e-05, No Iterations 4
GAMG:  Solving for ILambda_161_0, Initial residual = 1, Final residual = 1.77207899e-05, No Iterations 4
GAMG:  Solving for ILambda_162_0, Initial residual = 1, Final residual = 1.75851297e-05, No Iterations 4
GAMG:  Solving for ILambda_163_0, Initial residual = 1, Final residual = 9.26643696e-05, No Iterations 3
GAMG:  Solving for ILambda_164_0, Initial residual = 1, Final residual = 8.96495355e-05, No Iterations 3
GAMG:  Solving for ILambda_165_0, Initial residual = 1, Final residual = 1.30580641e-05, No Iterations 4
GAMG:  Solving for ILambda_166_0, Initial residual = 1, Final residual = 1.5725019e-05, No Iterations 4
GAMG:  Solving for ILambda_167_0, Initial residual = 1, Final residual = 1.69155547e-05, No Iterations 4
GAMG:  Solving for ILambda_168_0, Initial residual = 1, Final residual = 1.85628872e-05, No Iterations 4
GAMG:  Solving for ILambda_169_0, Initial residual = 1, Final residual = 1.28745421e-05, No Iterations 4
GAMG:  Solving for ILambda_170_0, Initial residual = 1, Final residual = 9.54551216e-05, No Iterations 3
GAMG:  Solving for ILambda_171_0, Initial residual = 1, Final residual = 8.09667954e-05, No Iterations 3
GAMG:  Solving for ILambda_172_0, Initial residual = 1, Final residual = 8.56108513e-05, No Iterations 3
GAMG:  Solving for ILambda_173_0, Initial residual = 1, Final residual = 2.43829023e-05, No Iterations 4
GAMG:  Solving for ILambda_174_0, Initial residual = 1, Final residual = 2.29007578e-05, No Iterations 4
GAMG:  Solving for ILambda_175_0, Initial residual = 1, Final residual = 1.35968726e-05, No Iterations 4
GAMG:  Solving for ILambda_176_0, Initial residual = 1, Final residual = 1.93383989e-05, No Iterations 4
GAMG:  Solving for ILambda_177_0, Initial residual = 1, Final residual = 2.65405093e-05, No Iterations 4
GAMG:  Solving for ILambda_178_0, Initial residual = 1, Final residual = 3.12579803e-05, No Iterations 4
GAMG:  Solving for ILambda_179_0, Initial residual = 1, Final residual = 6.48014348e-05, No Iterations 4
GAMG:  Solving for ILambda_180_0, Initial residual = 1, Final residual = 6.95934226e-05, No Iterations 4
GAMG:  Solving for ILambda_181_0, Initial residual = 1, Final residual = 2.76938542e-05, No Iterations 4
GAMG:  Solving for ILambda_182_0, Initial residual = 1, Final residual = 2.40168978e-05, No Iterations 4
GAMG:  Solving for ILambda_183_0, Initial residual = 1, Final residual = 1.9089552e-05, No Iterations 4
GAMG:  Solving for ILambda_184_0, Initial residual = 1, Final residual = 1.39476697e-05, No Iterations 4
GAMG:  Solving for ILambda_185_0, Initial residual = 1, Final residual = 2.31859322e-05, No Iterations 4
GAMG:  Solving for ILambda_186_0, Initial residual = 1, Final residual = 2.64568811e-05, No Iterations 4
GAMG:  Solving for ILambda_187_0, Initial residual = 1, Final residual = 8.65159496e-05, No Iterations 3
GAMG:  Solving for ILambda_188_0, Initial residual = 1, Final residual = 8.10827599e-05, No Iterations 3
GAMG:  Solving for ILambda_189_0, Initial residual = 1, Final residual = 8.80253487e-05, No Iterations 3
GAMG:  Solving for ILambda_190_0, Initial residual = 1, Final residual = 1.1483336e-05, No Iterations 4
GAMG:  Solving for ILambda_191_0, Initial residual = 1, Final residual = 1.74029021e-05, No Iterations 4
GAMG:  Solving for ILambda_192_0, Initial residual = 1, Final residual = 2.42151605e-05, No Iterations 4
GAMG:  Solving for ILambda_193_0, Initial residual = 1, Final residual = 1.44407244e-05, No Iterations 4
GAMG:  Solving for ILambda_194_0, Initial residual = 1, Final residual = 9.4510064e-05, No Iterations 3
GAMG:  Solving for ILambda_195_0, Initial residual = 1, Final residual = 8.89781629e-05, No Iterations 3
GAMG:  Solving for ILambda_196_0, Initial residual = 1, Final residual = 1.69061478e-05, No Iterations 4
GAMG:  Solving for ILambda_197_0, Initial residual = 1, Final residual = 4.8511219e-05, No Iterations 4
GAMG:  Solving for ILambda_198_0, Initial residual = 1, Final residual = 4.44195365e-05, No Iterations 4
GAMG:  Solving for ILambda_199_0, Initial residual = 1, Final residual = 2.2750259e-05, No Iterations 4
GAMG:  Solving for ILambda_200_0, Initial residual = 1, Final residual = 2.08090991e-05, No Iterations 4
GAMG:  Solving for ILambda_201_0, Initial residual = 1, Final residual = 2.67596455e-05, No Iterations 4
GAMG:  Solving for ILambda_202_0, Initial residual = 1, Final residual = 3.5895372e-05, No Iterations 4
GAMG:  Solving for ILambda_203_0, Initial residual = 1, Final residual = 8.3415641e-05, No Iterations 4
GAMG:  Solving for ILambda_204_0, Initial residual = 1, Final residual = 8.95258455e-05, No Iterations 4
GAMG:  Solving for ILambda_205_0, Initial residual = 1, Final residual = 3.58760334e-05, No Iterations 4
GAMG:  Solving for ILambda_206_0, Initial residual = 1, Final residual = 2.78603938e-05, No Iterations 4
GAMG:  Solving for ILambda_207_0, Initial residual = 1, Final residual = 2.36174543e-05, No Iterations 4
GAMG:  Solving for ILambda_208_0, Initial residual = 1, Final residual = 2.23981287e-05, No Iterations 4
GAMG:  Solving for ILambda_209_0, Initial residual = 1, Final residual = 4.64938352e-05, No Iterations 4
GAMG:  Solving for ILambda_210_0, Initial residual = 1, Final residual = 4.7711028e-05, No Iterations 4
GAMG:  Solving for ILambda_211_0, Initial residual = 1, Final residual = 1.73575522e-05, No Iterations 4
GAMG:  Solving for ILambda_212_0, Initial residual = 1, Final residual = 8.45104317e-05, No Iterations 3
GAMG:  Solving for ILambda_213_0, Initial residual = 1, Final residual = 8.91405466e-05, No Iterations 3
GAMG:  Solving for ILambda_214_0, Initial residual = 1, Final residual = 9.92668267e-05, No Iterations 3
GAMG:  Solving for ILambda_215_0, Initial residual = 1, Final residual = 2.32874683e-05, No Iterations 4
GAMG:  Solving for ILambda_216_0, Initial residual = 1, Final residual = 3.76432541e-05, No Iterations 4
GAMG:  Solving for ILambda_217_0, Initial residual = 1, Final residual = 2.46606437e-05, No Iterations 4
GAMG:  Solving for ILambda_218_0, Initial residual = 1, Final residual = 2.21170312e-05, No Iterations 4
GAMG:  Solving for ILambda_219_0, Initial residual = 1, Final residual = 2.4617297e-05, No Iterations 4
GAMG:  Solving for ILambda_220_0, Initial residual = 1, Final residual = 3.42066675e-05, No Iterations 4
GAMG:  Solving for ILambda_221_0, Initial residual = 1, Final residual = 6.24609561e-05, No Iterations 4
GAMG:  Solving for ILambda_222_0, Initial residual = 1, Final residual = 7.60780323e-05, No Iterations 4
GAMG:  Solving for ILambda_223_0, Initial residual = 1, Final residual = 4.85835362e-05, No Iterations 4
GAMG:  Solving for ILambda_224_0, Initial residual = 1, Final residual = 3.84193868e-05, No Iterations 4
GAMG:  Solving for ILambda_225_0, Initial residual = 1, Final residual = 4.0553508e-05, No Iterations 4
GAMG:  Solving for ILambda_226_0, Initial residual = 1, Final residual = 5.09884076e-05, No Iterations 4
GAMG:  Solving for ILambda_227_0, Initial residual = 1, Final residual = 8.73533458e-05, No Iterations 4
GAMG:  Solving for ILambda_228_0, Initial residual = 1, Final residual = 8.05765775e-05, No Iterations 4
GAMG:  Solving for ILambda_229_0, Initial residual = 1, Final residual = 4.85212323e-05, No Iterations 4
GAMG:  Solving for ILambda_230_0, Initial residual = 1, Final residual = 3.87034059e-05, No Iterations 4
GAMG:  Solving for ILambda_231_0, Initial residual = 1, Final residual = 3.71295838e-05, No Iterations 4
GAMG:  Solving for ILambda_232_0, Initial residual = 1, Final residual = 5.01561832e-05, No Iterations 4
GAMG:  Solving for ILambda_233_0, Initial residual = 1, Final residual = 7.43101506e-05, No Iterations 4
GAMG:  Solving for ILambda_234_0, Initial residual = 1, Final residual = 6.31151509e-05, No Iterations 4
GAMG:  Solving for ILambda_235_0, Initial residual = 1, Final residual = 3.50786016e-05, No Iterations 4
GAMG:  Solving for ILambda_236_0, Initial residual = 1, Final residual = 2.61504665e-05, No Iterations 4
GAMG:  Solving for ILambda_237_0, Initial residual = 1, Final residual = 2.27533445e-05, No Iterations 4
GAMG:  Solving for ILambda_238_0, Initial residual = 1, Final residual = 2.55586738e-05, No Iterations 4
GAMG:  Solving for ILambda_239_0, Initial residual = 1, Final residual = 3.65541614e-05, No Iterations 4
Radiation solver iter: 1
GAMG:  Solving for ILambda_0_0, Initial residual = 0.0502827842, Final residual = 3.66801358e-05, No Iterations 5
GAMG:  Solving for ILambda_1_0, Initial residual = 0.0518137512, Final residual = 8.08776661e-05, No Iterations 4
GAMG:  Solving for ILambda_2_0, Initial residual = 0.0526739859, Final residual = 6.09271273e-05, No Iterations 4
GAMG:  Solving for ILambda_3_0, Initial residual = 0.0532858139, Final residual = 5.73555301e-05, No Iterations 4
GAMG:  Solving for ILambda_4_0, Initial residual = 0.0535099025, Final residual = 6.18184347e-05, No Iterations 4
GAMG:  Solving for ILambda_5_0, Initial residual = 0.0534125937, Final residual = 7.87199398e-05, No Iterations 4
GAMG:  Solving for ILambda_6_0, Initial residual = 0.0545077712, Final residual = 7.43627052e-05, No Iterations 4
GAMG:  Solving for ILambda_7_0, Initial residual = 0.0579861707, Final residual = 4.55093717e-05, No Iterations 4
GAMG:  Solving for ILambda_8_0, Initial residual = 0.0616774966, Final residual = 3.62399724e-05, No Iterations 4
GAMG:  Solving for ILambda_9_0, Initial residual = 0.0643541785, Final residual = 3.29721657e-05, No Iterations 4
GAMG:  Solving for ILambda_10_0, Initial residual = 0.064531398, Final residual = 4.62909838e-05, No Iterations 4
GAMG:  Solving for ILambda_11_0, Initial residual = 0.0613733725, Final residual = 8.78097786e-05, No Iterations 4
GAMG:  Solving for ILambda_12_0, Initial residual = 0.0602763012, Final residual = 7.97756344e-05, No Iterations 4
GAMG:  Solving for ILambda_13_0, Initial residual = 0.0648678276, Final residual = 4.73355627e-05, No Iterations 4
GAMG:  Solving for ILambda_14_0, Initial residual = 0.0649624078, Final residual = 3.71653172e-05, No Iterations 4
GAMG:  Solving for ILambda_15_0, Initial residual = 0.0621895399, Final residual = 3.67183693e-05, No Iterations 4
GAMG:  Solving for ILambda_16_0, Initial residual = 0.0583783594, Final residual = 4.54196546e-05, No Iterations 4
GAMG:  Solving for ILambda_17_0, Initial residual = 0.0547102805, Final residual = 8.96025146e-05, No Iterations 4
GAMG:  Solving for ILambda_18_0, Initial residual = 0.0537386502, Final residual = 8.45612996e-05, No Iterations 4
GAMG:  Solving for ILambda_19_0, Initial residual = 0.0536891596, Final residual = 5.83925017e-05, No Iterations 4
GAMG:  Solving for ILambda_20_0, Initial residual = 0.0534534, Final residual = 6.01754046e-05, No Iterations 4
GAMG:  Solving for ILambda_21_0, Initial residual = 0.0527618548, Final residual = 6.4071698e-05, No Iterations 4
GAMG:  Solving for ILambda_22_0, Initial residual = 0.0516757529, Final residual = 8.15440744e-05, No Iterations 4
GAMG:  Solving for ILambda_23_0, Initial residual = 0.0498239856, Final residual = 3.67797201e-05, No Iterations 5
GAMG:  Solving for ILambda_24_0, Initial residual = 0.0650170778, Final residual = 4.09301865e-05, No Iterations 5
GAMG:  Solving for ILambda_25_0, Initial residual = 0.0636013387, Final residual = 9.22955657e-05, No Iterations 4
GAMG:  Solving for ILambda_26_0, Initial residual = 0.0612554627, Final residual = 6.77060571e-05, No Iterations 4
GAMG:  Solving for ILambda_27_0, Initial residual = 0.0585392072, Final residual = 4.05227132e-05, No Iterations 4
GAMG:  Solving for ILambda_28_0, Initial residual = 0.0551864264, Final residual = 2.65933608e-05, No Iterations 4
GAMG:  Solving for ILambda_29_0, Initial residual = 0.0523228053, Final residual = 3.59094279e-05, No Iterations 4
GAMG:  Solving for ILambda_30_0, Initial residual = 0.0548361985, Final residual = 3.56779798e-05, No Iterations 4
GAMG:  Solving for ILambda_31_0, Initial residual = 0.0624795463, Final residual = 1.87547633e-05, No Iterations 4
GAMG:  Solving for ILambda_32_0, Initial residual = 0.0711131203, Final residual = 1.54673884e-05, No Iterations 4
GAMG:  Solving for ILambda_33_0, Initial residual = 0.078265609, Final residual = 1.75432576e-05, No Iterations 4
GAMG:  Solving for ILambda_34_0, Initial residual = 0.083186902, Final residual = 2.71587699e-05, No Iterations 4
GAMG:  Solving for ILambda_35_0, Initial residual = 0.0802357749, Final residual = 8.11720003e-05, No Iterations 4
GAMG:  Solving for ILambda_36_0, Initial residual = 0.0801623486, Final residual = 8.73835443e-05, No Iterations 4
GAMG:  Solving for ILambda_37_0, Initial residual = 0.0840033635, Final residual = 3.10313097e-05, No Iterations 4
GAMG:  Solving for ILambda_38_0, Initial residual = 0.0791751455, Final residual = 2.26406454e-05, No Iterations 4
GAMG:  Solving for ILambda_39_0, Initial residual = 0.0720608294, Final residual = 2.05225182e-05, No Iterations 4
GAMG:  Solving for ILambda_40_0, Initial residual = 0.063568691, Final residual = 2.06020295e-05, No Iterations 4
GAMG:  Solving for ILambda_41_0, Initial residual = 0.0556316406, Final residual = 4.44701121e-05, No Iterations 4
GAMG:  Solving for ILambda_42_0, Initial residual = 0.0528031011, Final residual = 4.63660056e-05, No Iterations 4
GAMG:  Solving for ILambda_43_0, Initial residual = 0.055536437, Final residual = 3.20348312e-05, No Iterations 4
GAMG:  Solving for ILambda_44_0, Initial residual = 0.0585015128, Final residual = 4.89641503e-05, No Iterations 4
GAMG:  Solving for ILambda_45_0, Initial residual = 0.0608605604, Final residual = 7.82132555e-05, No Iterations 4
GAMG:  Solving for ILambda_46_0, Initial residual = 0.0633587752, Final residual = 2.24616448e-05, No Iterations 5
GAMG:  Solving for ILambda_47_0, Initial residual = 0.0645437703, Final residual = 4.08042329e-05, No Iterations 5
GAMG:  Solving for ILambda_48_0, Initial residual = 0.0755150776, Final residual = 2.56874282e-05, No Iterations 5
GAMG:  Solving for ILambda_49_0, Initial residual = 0.0719764635, Final residual = 5.93583496e-05, No Iterations 4
GAMG:  Solving for ILambda_50_0, Initial residual = 0.0657874737, Final residual = 3.85885008e-05, No Iterations 4
GAMG:  Solving for ILambda_51_0, Initial residual = 0.0586335134, Final residual = 3.78034491e-05, No Iterations 4
GAMG:  Solving for ILambda_52_0, Initial residual = 0.0523452417, Final residual = 2.70327759e-05, No Iterations 4
GAMG:  Solving for ILambda_53_0, Initial residual = 0.0467666186, Final residual = 2.31557135e-05, No Iterations 4
GAMG:  Solving for ILambda_54_0, Initial residual = 0.0497963444, Final residual = 2.27168491e-05, No Iterations 4
GAMG:  Solving for ILambda_55_0, Initial residual = 0.0612892824, Final residual = 1.4581526e-05, No Iterations 4
GAMG:  Solving for ILambda_56_0, Initial residual = 0.0721680823, Final residual = 1.40650271e-05, No Iterations 4
GAMG:  Solving for ILambda_57_0, Initial residual = 0.0826540395, Final residual = 1.81525066e-05, No Iterations 4
GAMG:  Solving for ILambda_58_0, Initial residual = 0.0908791853, Final residual = 2.01587404e-05, No Iterations 4
GAMG:  Solving for ILambda_59_0, Initial residual = 0.0883748781, Final residual = 5.11783953e-05, No Iterations 4
GAMG:  Solving for ILambda_60_0, Initial residual = 0.0885244446, Final residual = 4.40875609e-05, No Iterations 4
GAMG:  Solving for ILambda_61_0, Initial residual = 0.091651661, Final residual = 2.78463127e-05, No Iterations 4
GAMG:  Solving for ILambda_62_0, Initial residual = 0.0839112933, Final residual = 2.24912817e-05, No Iterations 4
GAMG:  Solving for ILambda_63_0, Initial residual = 0.0735317608, Final residual = 1.73572164e-05, No Iterations 4
GAMG:  Solving for ILambda_64_0, Initial residual = 0.0621904386, Final residual = 1.67377131e-05, No Iterations 4
GAMG:  Solving for ILambda_65_0, Initial residual = 0.0502986872, Final residual = 2.65524482e-05, No Iterations 4
GAMG:  Solving for ILambda_66_0, Initial residual = 0.0473699234, Final residual = 2.73733413e-05, No Iterations 4
GAMG:  Solving for ILambda_67_0, Initial residual = 0.0525202788, Final residual = 3.22575103e-05, No Iterations 4
GAMG:  Solving for ILambda_68_0, Initial residual = 0.0582452283, Final residual = 4.53831733e-05, No Iterations 4
GAMG:  Solving for ILambda_69_0, Initial residual = 0.0651222813, Final residual = 4.92605446e-05, No Iterations 4
GAMG:  Solving for ILambda_70_0, Initial residual = 0.0711037368, Final residual = 6.51655431e-05, No Iterations 4
GAMG:  Solving for ILambda_71_0, Initial residual = 0.0753687712, Final residual = 2.67860454e-05, No Iterations 5
GAMG:  Solving for ILambda_72_0, Initial residual = 0.0798387217, Final residual = 6.89926221e-05, No Iterations 4
GAMG:  Solving for ILambda_73_0, Initial residual = 0.0763011236, Final residual = 3.36249641e-05, No Iterations 4
GAMG:  Solving for ILambda_74_0, Initial residual = 0.0691138745, Final residual = 3.26216769e-05, No Iterations 4
GAMG:  Solving for ILambda_75_0, Initial residual = 0.0587891738, Final residual = 3.21157191e-05, No Iterations 4
GAMG:  Solving for ILambda_76_0, Initial residual = 0.0495764261, Final residual = 2.38039334e-05, No Iterations 4
GAMG:  Solving for ILambda_77_0, Initial residual = 0.0403842211, Final residual = 1.64699051e-05, No Iterations 4
GAMG:  Solving for ILambda_78_0, Initial residual = 0.0436351532, Final residual = 1.49800458e-05, No Iterations 4
GAMG:  Solving for ILambda_79_0, Initial residual = 0.0574116682, Final residual = 9.07084433e-05, No Iterations 3
GAMG:  Solving for ILambda_80_0, Initial residual = 0.0697285775, Final residual = 1.336999e-05, No Iterations 4
GAMG:  Solving for ILambda_81_0, Initial residual = 0.0816216662, Final residual = 2.05139962e-05, No Iterations 4
GAMG:  Solving for ILambda_82_0, Initial residual = 0.0908705523, Final residual = 2.15616967e-05, No Iterations 4
GAMG:  Solving for ILambda_83_0, Initial residual = 0.0875191971, Final residual = 2.77898494e-05, No Iterations 4
GAMG:  Solving for ILambda_84_0, Initial residual = 0.0880341899, Final residual = 2.35445866e-05, No Iterations 4
GAMG:  Solving for ILambda_85_0, Initial residual = 0.0919458711, Final residual = 2.24564798e-05, No Iterations 4
GAMG:  Solving for ILambda_86_0, Initial residual = 0.0828601951, Final residual = 1.79203404e-05, No Iterations 4
GAMG:  Solving for ILambda_87_0, Initial residual = 0.0707665191, Final residual = 1.58766835e-05, No Iterations 4
GAMG:  Solving for ILambda_88_0, Initial residual = 0.0579511608, Final residual = 1.34779882e-05, No Iterations 4
GAMG:  Solving for ILambda_89_0, Initial residual = 0.0437917301, Final residual = 1.80894807e-05, No Iterations 4
GAMG:  Solving for ILambda_90_0, Initial residual = 0.0409183839, Final residual = 2.17764978e-05, No Iterations 4
GAMG:  Solving for ILambda_91_0, Initial residual = 0.0496358402, Final residual = 2.78410986e-05, No Iterations 4
GAMG:  Solving for ILambda_92_0, Initial residual = 0.0584615107, Final residual = 4.16530558e-05, No Iterations 4
GAMG:  Solving for ILambda_93_0, Initial residual = 0.0682361033, Final residual = 4.32311344e-05, No Iterations 4
GAMG:  Solving for ILambda_94_0, Initial residual = 0.0756189212, Final residual = 4.08999005e-05, No Iterations 4
GAMG:  Solving for ILambda_95_0, Initial residual = 0.0806219786, Final residual = 7.95009694e-05, No Iterations 4
GAMG:  Solving for ILambda_96_0, Initial residual = 0.0822824187, Final residual = 4.74416132e-05, No Iterations 4
GAMG:  Solving for ILambda_97_0, Initial residual = 0.0805855176, Final residual = 3.14567525e-05, No Iterations 4
GAMG:  Solving for ILambda_98_0, Initial residual = 0.0717203972, Final residual = 3.10460874e-05, No Iterations 4
GAMG:  Solving for ILambda_99_0, Initial residual = 0.0593947504, Final residual = 3.89583354e-05, No Iterations 4
GAMG:  Solving for ILambda_100_0, Initial residual = 0.0472003427, Final residual = 3.16287344e-05, No Iterations 4
GAMG:  Solving for ILambda_101_0, Initial residual = 0.0331017926, Final residual = 2.4472134e-05, No Iterations 4
GAMG:  Solving for ILambda_102_0, Initial residual = 0.0353742807, Final residual = 2.29854593e-05, No Iterations 4
GAMG:  Solving for ILambda_103_0, Initial residual = 0.05110084, Final residual = 2.53239042e-05, No Iterations 4
GAMG:  Solving for ILambda_104_0, Initial residual = 0.0648411306, Final residual = 3.32145045e-05, No Iterations 4
GAMG:  Solving for ILambda_105_0, Initial residual = 0.0775037646, Final residual = 3.59649597e-05, No Iterations 4
GAMG:  Solving for ILambda_106_0, Initial residual = 0.0869614437, Final residual = 3.7851838e-05, No Iterations 4
GAMG:  Solving for ILambda_107_0, Initial residual = 0.0811318057, Final residual = 2.68545436e-05, No Iterations 4
GAMG:  Solving for ILambda_108_0, Initial residual = 0.0817319493, Final residual = 2.53937474e-05, No Iterations 4
GAMG:  Solving for ILambda_109_0, Initial residual = 0.0879058764, Final residual = 2.50670774e-05, No Iterations 4
GAMG:  Solving for ILambda_110_0, Initial residual = 0.0782742893, Final residual = 2.61416589e-05, No Iterations 4
GAMG:  Solving for ILambda_111_0, Initial residual = 0.065232741, Final residual = 3.02932021e-05, No Iterations 4
GAMG:  Solving for ILambda_112_0, Initial residual = 0.0513571067, Final residual = 2.73403551e-05, No Iterations 4
GAMG:  Solving for ILambda_113_0, Initial residual = 0.0353656747, Final residual = 2.83209892e-05, No Iterations 4
GAMG:  Solving for ILambda_114_0, Initial residual = 0.03332145, Final residual = 3.50811963e-05, No Iterations 4
GAMG:  Solving for ILambda_115_0, Initial residual = 0.0471677108, Final residual = 3.97170633e-05, No Iterations 4
GAMG:  Solving for ILambda_116_0, Initial residual = 0.0592655145, Final residual = 5.36069726e-05, No Iterations 4
GAMG:  Solving for ILambda_117_0, Initial residual = 0.0711073025, Final residual = 5.91596443e-05, No Iterations 4
GAMG:  Solving for ILambda_118_0, Initial residual = 0.0809664141, Final residual = 6.23569195e-05, No Iterations 4
GAMG:  Solving for ILambda_119_0, Initial residual = 0.0836559707, Final residual = 5.57740927e-05, No Iterations 4
GAMG:  Solving for ILambda_120_0, Initial residual = 0.0781879765, Final residual = 2.49488853e-05, No Iterations 4
GAMG:  Solving for ILambda_121_0, Initial residual = 0.0804007195, Final residual = 3.38374153e-05, No Iterations 4
GAMG:  Solving for ILambda_122_0, Initial residual = 0.0712036312, Final residual = 2.91195106e-05, No Iterations 4
GAMG:  Solving for ILambda_123_0, Initial residual = 0.0594037363, Final residual = 3.0670386e-05, No Iterations 4
GAMG:  Solving for ILambda_124_0, Initial residual = 0.0463359344, Final residual = 2.80902852e-05, No Iterations 4
GAMG:  Solving for ILambda_125_0, Initial residual = 0.0312687782, Final residual = 1.9102455e-05, No Iterations 4
GAMG:  Solving for ILambda_126_0, Initial residual = 0.0300889745, Final residual = 2.35616412e-05, No Iterations 4
GAMG:  Solving for ILambda_127_0, Initial residual = 0.0423093373, Final residual = 3.29387187e-05, No Iterations 4
GAMG:  Solving for ILambda_128_0, Initial residual = 0.0533218634, Final residual = 5.22173472e-05, No Iterations 4
GAMG:  Solving for ILambda_129_0, Initial residual = 0.0643648365, Final residual = 5.534671e-05, No Iterations 4
GAMG:  Solving for ILambda_130_0, Initial residual = 0.0728884386, Final residual = 5.6105649e-05, No Iterations 4
GAMG:  Solving for ILambda_131_0, Initial residual = 0.0691070589, Final residual = 5.91887752e-05, No Iterations 4
GAMG:  Solving for ILambda_132_0, Initial residual = 0.0689342143, Final residual = 5.03538596e-05, No Iterations 4
GAMG:  Solving for ILambda_133_0, Initial residual = 0.073418531, Final residual = 4.1405615e-05, No Iterations 4
GAMG:  Solving for ILambda_134_0, Initial residual = 0.0647103293, Final residual = 4.71088112e-05, No Iterations 4
GAMG:  Solving for ILambda_135_0, Initial residual = 0.0535431766, Final residual = 4.69335587e-05, No Iterations 4
GAMG:  Solving for ILambda_136_0, Initial residual = 0.0426278961, Final residual = 3.31725399e-05, No Iterations 4
GAMG:  Solving for ILambda_137_0, Initial residual = 0.0302375423, Final residual = 2.98011813e-05, No Iterations 4
GAMG:  Solving for ILambda_138_0, Initial residual = 0.0316097482, Final residual = 2.5030766e-05, No Iterations 4
GAMG:  Solving for ILambda_139_0, Initial residual = 0.0465778826, Final residual = 3.31465994e-05, No Iterations 4
GAMG:  Solving for ILambda_140_0, Initial residual = 0.0593871205, Final residual = 3.79777893e-05, No Iterations 4
GAMG:  Solving for ILambda_141_0, Initial residual = 0.0711617067, Final residual = 4.9043383e-05, No Iterations 4
GAMG:  Solving for ILambda_142_0, Initial residual = 0.0810627708, Final residual = 4.78566876e-05, No Iterations 4
GAMG:  Solving for ILambda_143_0, Initial residual = 0.079225856, Final residual = 3.39414862e-05, No Iterations 4
GAMG:  Solving for ILambda_144_0, Initial residual = 0.0729026994, Final residual = 2.44659696e-05, No Iterations 4
GAMG:  Solving for ILambda_145_0, Initial residual = 0.0756958988, Final residual = 1.98894038e-05, No Iterations 4
GAMG:  Solving for ILambda_146_0, Initial residual = 0.0674077003, Final residual = 1.67066082e-05, No Iterations 4
GAMG:  Solving for ILambda_147_0, Initial residual = 0.0578136561, Final residual = 9.75107694e-05, No Iterations 3
GAMG:  Solving for ILambda_148_0, Initial residual = 0.0473645714, Final residual = 9.83509011e-05, No Iterations 3
GAMG:  Solving for ILambda_149_0, Initial residual = 0.0354031885, Final residual = 1.54544225e-05, No Iterations 4
GAMG:  Solving for ILambda_150_0, Initial residual = 0.0335733416, Final residual = 1.62444432e-05, No Iterations 4
GAMG:  Solving for ILambda_151_0, Initial residual = 0.0404004659, Final residual = 2.0753948e-05, No Iterations 4
GAMG:  Solving for ILambda_152_0, Initial residual = 0.0460131375, Final residual = 3.02574757e-05, No Iterations 4
GAMG:  Solving for ILambda_153_0, Initial residual = 0.0523151925, Final residual = 4.36752154e-05, No Iterations 4
GAMG:  Solving for ILambda_154_0, Initial residual = 0.0582918172, Final residual = 4.94222128e-05, No Iterations 4
GAMG:  Solving for ILambda_155_0, Initial residual = 0.0581872666, Final residual = 6.99450983e-05, No Iterations 4
GAMG:  Solving for ILambda_156_0, Initial residual = 0.0581050721, Final residual = 6.93793631e-05, No Iterations 4
GAMG:  Solving for ILambda_157_0, Initial residual = 0.0586497785, Final residual = 4.46756272e-05, No Iterations 4
GAMG:  Solving for ILambda_158_0, Initial residual = 0.052808298, Final residual = 3.78502869e-05, No Iterations 4
GAMG:  Solving for ILambda_159_0, Initial residual = 0.0464649199, Final residual = 2.86838389e-05, No Iterations 4
GAMG:  Solving for ILambda_160_0, Initial residual = 0.0408480912, Final residual = 1.70129902e-05, No Iterations 4
GAMG:  Solving for ILambda_161_0, Initial residual = 0.0339104412, Final residual = 1.65731467e-05, No Iterations 4
GAMG:  Solving for ILambda_162_0, Initial residual = 0.0357254489, Final residual = 1.72057951e-05, No Iterations 4
GAMG:  Solving for ILambda_163_0, Initial residual = 0.0473766949, Final residual = 1.54721712e-05, No Iterations 4
GAMG:  Solving for ILambda_164_0, Initial residual = 0.0577340403, Final residual = 1.6243768e-05, No Iterations 4
GAMG:  Solving for ILambda_165_0, Initial residual = 0.0676005517, Final residual = 1.73657579e-05, No Iterations 4
GAMG:  Solving for ILambda_166_0, Initial residual = 0.0763248841, Final residual = 2.36053111e-05, No Iterations 4
GAMG:  Solving for ILambda_167_0, Initial residual = 0.0735120868, Final residual = 2.24640801e-05, No Iterations 4
GAMG:  Solving for ILambda_168_0, Initial residual = 0.0645861025, Final residual = 2.85958076e-05, No Iterations 4
GAMG:  Solving for ILambda_169_0, Initial residual = 0.0677170901, Final residual = 1.84217549e-05, No Iterations 4
GAMG:  Solving for ILambda_170_0, Initial residual = 0.0617522976, Final residual = 1.47870484e-05, No Iterations 4
GAMG:  Solving for ILambda_171_0, Initial residual = 0.0541358469, Final residual = 1.36533295e-05, No Iterations 4
GAMG:  Solving for ILambda_172_0, Initial residual = 0.0459465777, Final residual = 1.71061989e-05, No Iterations 4
GAMG:  Solving for ILambda_173_0, Initial residual = 0.0367706428, Final residual = 2.52853086e-05, No Iterations 4
GAMG:  Solving for ILambda_174_0, Initial residual = 0.034775986, Final residual = 2.48648551e-05, No Iterations 4
GAMG:  Solving for ILambda_175_0, Initial residual = 0.0392347719, Final residual = 1.62218195e-05, No Iterations 4
GAMG:  Solving for ILambda_176_0, Initial residual = 0.0415933989, Final residual = 2.24233032e-05, No Iterations 4
GAMG:  Solving for ILambda_177_0, Initial residual = 0.0436330704, Final residual = 3.32442964e-05, No Iterations 4
GAMG:  Solving for ILambda_178_0, Initial residual = 0.0461004831, Final residual = 4.406607e-05, No Iterations 4
GAMG:  Solving for ILambda_179_0, Initial residual = 0.0465790071, Final residual = 7.85803268e-05, No Iterations 4
GAMG:  Solving for ILambda_180_0, Initial residual = 0.0468655593, Final residual = 8.41105267e-05, No Iterations 4
GAMG:  Solving for ILambda_181_0, Initial residual = 0.0465863181, Final residual = 3.97384235e-05, No Iterations 4
GAMG:  Solving for ILambda_182_0, Initial residual = 0.0439860891, Final residual = 3.04938509e-05, No Iterations 4
GAMG:  Solving for ILambda_183_0, Initial residual = 0.0416896918, Final residual = 2.2343851e-05, No Iterations 4
GAMG:  Solving for ILambda_184_0, Initial residual = 0.039314982, Final residual = 1.64170555e-05, No Iterations 4
GAMG:  Solving for ILambda_185_0, Initial residual = 0.0347556862, Final residual = 2.40743775e-05, No Iterations 4
GAMG:  Solving for ILambda_186_0, Initial residual = 0.0368829921, Final residual = 2.87881714e-05, No Iterations 4
GAMG:  Solving for ILambda_187_0, Initial residual = 0.0460351605, Final residual = 1.733891e-05, No Iterations 4
GAMG:  Solving for ILambda_188_0, Initial residual = 0.0541984595, Final residual = 1.29203374e-05, No Iterations 4
GAMG:  Solving for ILambda_189_0, Initial residual = 0.0621096179, Final residual = 1.3884539e-05, No Iterations 4
GAMG:  Solving for ILambda_190_0, Initial residual = 0.0682337342, Final residual = 1.70601907e-05, No Iterations 4
GAMG:  Solving for ILambda_191_0, Initial residual = 0.0647486898, Final residual = 2.30680896e-05, No Iterations 4
GAMG:  Solving for ILambda_192_0, Initial residual = 0.052711509, Final residual = 2.75331458e-05, No Iterations 4
GAMG:  Solving for ILambda_193_0, Initial residual = 0.0550019755, Final residual = 1.82724497e-05, No Iterations 4
GAMG:  Solving for ILambda_194_0, Initial residual = 0.0526440004, Final residual = 1.70427411e-05, No Iterations 4
GAMG:  Solving for ILambda_195_0, Initial residual = 0.0484058447, Final residual = 1.61907069e-05, No Iterations 4
GAMG:  Solving for ILambda_196_0, Initial residual = 0.043071643, Final residual = 2.15590399e-05, No Iterations 4
GAMG:  Solving for ILambda_197_0, Initial residual = 0.0371043978, Final residual = 5.10390199e-05, No Iterations 4
GAMG:  Solving for ILambda_198_0, Initial residual = 0.0353010038, Final residual = 4.83110925e-05, No Iterations 4
GAMG:  Solving for ILambda_199_0, Initial residual = 0.0369304894, Final residual = 2.48226229e-05, No Iterations 4
GAMG:  Solving for ILambda_200_0, Initial residual = 0.0376734409, Final residual = 2.84418433e-05, No Iterations 4
GAMG:  Solving for ILambda_201_0, Initial residual = 0.0376075176, Final residual = 3.36676353e-05, No Iterations 4
GAMG:  Solving for ILambda_202_0, Initial residual = 0.0377676463, Final residual = 4.3731704e-05, No Iterations 4
GAMG:  Solving for ILambda_203_0, Initial residual = 0.0376406161, Final residual = 9.50338195e-05, No Iterations 4
GAMG:  Solving for ILambda_204_0, Initial residual = 0.0377419371, Final residual = 8.74762309e-05, No Iterations 4
GAMG:  Solving for ILambda_205_0, Initial residual = 0.0378980842, Final residual = 4.61217709e-05, No Iterations 4
GAMG:  Solving for ILambda_206_0, Initial residual = 0.0377594342, Final residual = 3.49976946e-05, No Iterations 4
GAMG:  Solving for ILambda_207_0, Initial residual = 0.0376387431, Final residual = 3.31719985e-05, No Iterations 4
GAMG:  Solving for ILambda_208_0, Initial residual = 0.0370792619, Final residual = 2.80656544e-05, No Iterations 4
GAMG:  Solving for ILambda_209_0, Initial residual = 0.0354662264, Final residual = 5.10278696e-05, No Iterations 4
GAMG:  Solving for ILambda_210_0, Initial residual = 0.0376375772, Final residual = 5.82758656e-05, No Iterations 4
GAMG:  Solving for ILambda_211_0, Initial residual = 0.0436074432, Final residual = 2.2123346e-05, No Iterations 4
GAMG:  Solving for ILambda_212_0, Initial residual = 0.048804979, Final residual = 1.85151077e-05, No Iterations 4
GAMG:  Solving for ILambda_213_0, Initial residual = 0.0531009228, Final residual = 1.70781216e-05, No Iterations 4
GAMG:  Solving for ILambda_214_0, Initial residual = 0.0555667003, Final residual = 1.92974695e-05, No Iterations 4
GAMG:  Solving for ILambda_215_0, Initial residual = 0.0528467895, Final residual = 2.81827738e-05, No Iterations 4
GAMG:  Solving for ILambda_216_0, Initial residual = 0.0378343872, Final residual = 4.83167101e-05, No Iterations 4
GAMG:  Solving for ILambda_217_0, Initial residual = 0.0388394431, Final residual = 3.19323305e-05, No Iterations 4
GAMG:  Solving for ILambda_218_0, Initial residual = 0.0391732947, Final residual = 3.12376743e-05, No Iterations 4
GAMG:  Solving for ILambda_219_0, Initial residual = 0.0384619574, Final residual = 3.37918091e-05, No Iterations 4
GAMG:  Solving for ILambda_220_0, Initial residual = 0.0368611495, Final residual = 3.81123476e-05, No Iterations 4
GAMG:  Solving for ILambda_221_0, Initial residual = 0.0349039834, Final residual = 7.7103711e-05, No Iterations 4
GAMG:  Solving for ILambda_222_0, Initial residual = 0.0331445886, Final residual = 8.33693856e-05, No Iterations 4
GAMG:  Solving for ILambda_223_0, Initial residual = 0.0325387406, Final residual = 5.43333503e-05, No Iterations 4
GAMG:  Solving for ILambda_224_0, Initial residual = 0.0321697034, Final residual = 5.25020421e-05, No Iterations 4
GAMG:  Solving for ILambda_225_0, Initial residual = 0.0316721091, Final residual = 5.23625927e-05, No Iterations 4
GAMG:  Solving for ILambda_226_0, Initial residual = 0.0304420343, Final residual = 5.9485591e-05, No Iterations 4
GAMG:  Solving for ILambda_227_0, Initial residual = 0.0298384819, Final residual = 3.05963331e-05, No Iterations 5
GAMG:  Solving for ILambda_228_0, Initial residual = 0.0300754367, Final residual = 3.34892668e-05, No Iterations 5
GAMG:  Solving for ILambda_229_0, Initial residual = 0.0308241765, Final residual = 5.93884743e-05, No Iterations 4
GAMG:  Solving for ILambda_230_0, Initial residual = 0.0321847291, Final residual = 4.73466819e-05, No Iterations 4
GAMG:  Solving for ILambda_231_0, Initial residual = 0.0328657889, Final residual = 4.54004941e-05, No Iterations 4
GAMG:  Solving for ILambda_232_0, Initial residual = 0.0331928264, Final residual = 5.59311614e-05, No Iterations 4
GAMG:  Solving for ILambda_233_0, Initial residual = 0.0338719584, Final residual = 8.80108242e-05, No Iterations 4
GAMG:  Solving for ILambda_234_0, Initial residual = 0.0353436266, Final residual = 7.29370095e-05, No Iterations 4
GAMG:  Solving for ILambda_235_0, Initial residual = 0.0373144641, Final residual = 4.29255485e-05, No Iterations 4
GAMG:  Solving for ILambda_236_0, Initial residual = 0.0389551289, Final residual = 3.38160182e-05, No Iterations 4
GAMG:  Solving for ILambda_237_0, Initial residual = 0.0396786004, Final residual = 3.01771142e-05, No Iterations 4
GAMG:  Solving for ILambda_238_0, Initial residual = 0.0390535176, Final residual = 3.45009837e-05, No Iterations 4
GAMG:  Solving for ILambda_239_0, Initial residual = 0.0376862927, Final residual = 4.79864881e-05, No Iterations 4
Radiation solver iter: 2
GAMG:  Solving for ILambda_0_0, Initial residual = 0.0315507271, Final residual = 3.24716918e-05, No Iterations 4
GAMG:  Solving for ILambda_1_0, Initial residual = 0.0333133388, Final residual = 2.29393878e-05, No Iterations 4
GAMG:  Solving for ILambda_2_0, Initial residual = 0.0350588116, Final residual = 9.26694663e-05, No Iterations 3
GAMG:  Solving for ILambda_3_0, Initial residual = 0.0360717079, Final residual = 8.63366191e-05, No Iterations 3
GAMG:  Solving for ILambda_4_0, Initial residual = 0.0364183002, Final residual = 8.98452959e-05, No Iterations 3
GAMG:  Solving for ILambda_5_0, Initial residual = 0.0364442766, Final residual = 2.5670764e-05, No Iterations 4
GAMG:  Solving for ILambda_6_0, Initial residual = 0.036727102, Final residual = 2.46053204e-05, No Iterations 4
GAMG:  Solving for ILambda_7_0, Initial residual = 0.0380428531, Final residual = 8.20704637e-05, No Iterations 3
GAMG:  Solving for ILambda_8_0, Initial residual = 0.0403386773, Final residual = 7.38644399e-05, No Iterations 3
GAMG:  Solving for ILambda_9_0, Initial residual = 0.0404231116, Final residual = 6.86285964e-05, No Iterations 3
GAMG:  Solving for ILambda_10_0, Initial residual = 0.0383608196, Final residual = 8.38256851e-05, No Iterations 3
GAMG:  Solving for ILambda_11_0, Initial residual = 0.0336835034, Final residual = 2.36441622e-05, No Iterations 4
GAMG:  Solving for ILambda_12_0, Initial residual = 0.033861492, Final residual = 2.22829721e-05, No Iterations 4
GAMG:  Solving for ILambda_13_0, Initial residual = 0.0380788441, Final residual = 8.52374841e-05, No Iterations 3
GAMG:  Solving for ILambda_14_0, Initial residual = 0.0409946063, Final residual = 7.45039432e-05, No Iterations 3
GAMG:  Solving for ILambda_15_0, Initial residual = 0.0407563388, Final residual = 7.96080719e-05, No Iterations 3
GAMG:  Solving for ILambda_16_0, Initial residual = 0.0386860001, Final residual = 9.39518261e-05, No Iterations 3
GAMG:  Solving for ILambda_17_0, Initial residual = 0.0370506078, Final residual = 2.88597769e-05, No Iterations 4
GAMG:  Solving for ILambda_18_0, Initial residual = 0.0368496108, Final residual = 2.7897072e-05, No Iterations 4
GAMG:  Solving for ILambda_19_0, Initial residual = 0.0367755001, Final residual = 1.79650723e-05, No Iterations 4
GAMG:  Solving for ILambda_20_0, Initial residual = 0.0363853647, Final residual = 9.51102098e-05, No Iterations 3
GAMG:  Solving for ILambda_21_0, Initial residual = 0.0351184177, Final residual = 9.51886461e-05, No Iterations 3
GAMG:  Solving for ILambda_22_0, Initial residual = 0.0330287148, Final residual = 2.3277141e-05, No Iterations 4
GAMG:  Solving for ILambda_23_0, Initial residual = 0.03119562, Final residual = 3.11158401e-05, No Iterations 4
GAMG:  Solving for ILambda_24_0, Initial residual = 0.0443129563, Final residual = 4.79643119e-05, No Iterations 4
GAMG:  Solving for ILambda_25_0, Initial residual = 0.0450725727, Final residual = 3.25529846e-05, No Iterations 4
GAMG:  Solving for ILambda_26_0, Initial residual = 0.0441157849, Final residual = 2.348638e-05, No Iterations 4
GAMG:  Solving for ILambda_27_0, Initial residual = 0.042825395, Final residual = 8.83330692e-05, No Iterations 3
GAMG:  Solving for ILambda_28_0, Initial residual = 0.0397668588, Final residual = 6.00754522e-05, No Iterations 3
GAMG:  Solving for ILambda_29_0, Initial residual = 0.0374911078, Final residual = 6.88734718e-05, No Iterations 3
GAMG:  Solving for ILambda_30_0, Initial residual = 0.0386907944, Final residual = 6.93475336e-05, No Iterations 3
GAMG:  Solving for ILambda_31_0, Initial residual = 0.0439321766, Final residual = 5.12361304e-05, No Iterations 3
GAMG:  Solving for ILambda_32_0, Initial residual = 0.0502064047, Final residual = 4.75389112e-05, No Iterations 3
GAMG:  Solving for ILambda_33_0, Initial residual = 0.05383101, Final residual = 5.34879513e-05, No Iterations 3
GAMG:  Solving for ILambda_34_0, Initial residual = 0.0543878515, Final residual = 6.88808987e-05, No Iterations 3
GAMG:  Solving for ILambda_35_0, Initial residual = 0.0474331221, Final residual = 2.0122758e-05, No Iterations 4
GAMG:  Solving for ILambda_36_0, Initial residual = 0.047188668, Final residual = 2.21960782e-05, No Iterations 4
GAMG:  Solving for ILambda_37_0, Initial residual = 0.0547209768, Final residual = 9.39290094e-05, No Iterations 3
GAMG:  Solving for ILambda_38_0, Initial residual = 0.054457974, Final residual = 7.14280063e-05, No Iterations 3
GAMG:  Solving for ILambda_39_0, Initial residual = 0.0506979232, Final residual = 6.2576723e-05, No Iterations 3
GAMG:  Solving for ILambda_40_0, Initial residual = 0.0448578381, Final residual = 6.21515108e-05, No Iterations 3
GAMG:  Solving for ILambda_41_0, Initial residual = 0.0393204617, Final residual = 9.11670641e-05, No Iterations 3
GAMG:  Solving for ILambda_42_0, Initial residual = 0.0380540157, Final residual = 9.15205877e-05, No Iterations 3
GAMG:  Solving for ILambda_43_0, Initial residual = 0.040089491, Final residual = 7.8565514e-05, No Iterations 3
GAMG:  Solving for ILambda_44_0, Initial residual = 0.042871238, Final residual = 1.80979304e-05, No Iterations 4
GAMG:  Solving for ILambda_45_0, Initial residual = 0.0439012988, Final residual = 2.75027612e-05, No Iterations 4
GAMG:  Solving for ILambda_46_0, Initial residual = 0.0449098678, Final residual = 3.47661519e-05, No Iterations 4
GAMG:  Solving for ILambda_47_0, Initial residual = 0.0440425882, Final residual = 4.85730522e-05, No Iterations 4
GAMG:  Solving for ILambda_48_0, Initial residual = 0.0504486479, Final residual = 3.90338296e-05, No Iterations 4
GAMG:  Solving for ILambda_49_0, Initial residual = 0.0510723368, Final residual = 2.32150374e-05, No Iterations 4
GAMG:  Solving for ILambda_50_0, Initial residual = 0.0488498863, Final residual = 9.68031924e-05, No Iterations 3
GAMG:  Solving for ILambda_51_0, Initial residual = 0.0433646432, Final residual = 8.7760974e-05, No Iterations 3
GAMG:  Solving for ILambda_52_0, Initial residual = 0.0375175876, Final residual = 6.09506485e-05, No Iterations 3
GAMG:  Solving for ILambda_53_0, Initial residual = 0.0328762111, Final residual = 4.92553343e-05, No Iterations 3
GAMG:  Solving for ILambda_54_0, Initial residual = 0.0341816526, Final residual = 4.95071484e-05, No Iterations 3
GAMG:  Solving for ILambda_55_0, Initial residual = 0.0437121143, Final residual = 3.86649485e-05, No Iterations 3
GAMG:  Solving for ILambda_56_0, Initial residual = 0.0525229597, Final residual = 4.07941188e-05, No Iterations 3
GAMG:  Solving for ILambda_57_0, Initial residual = 0.0591476266, Final residual = 5.23839702e-05, No Iterations 3
GAMG:  Solving for ILambda_58_0, Initial residual = 0.0612697828, Final residual = 7.53492567e-05, No Iterations 3
GAMG:  Solving for ILambda_59_0, Initial residual = 0.0524516555, Final residual = 1.44576177e-05, No Iterations 4
GAMG:  Solving for ILambda_60_0, Initial residual = 0.0524894476, Final residual = 1.70111424e-05, No Iterations 4
GAMG:  Solving for ILambda_61_0, Initial residual = 0.0617608314, Final residual = 9.46279696e-05, No Iterations 3
GAMG:  Solving for ILambda_62_0, Initial residual = 0.0599074104, Final residual = 7.24169397e-05, No Iterations 3
GAMG:  Solving for ILambda_63_0, Initial residual = 0.0535918453, Final residual = 5.36682645e-05, No Iterations 3
GAMG:  Solving for ILambda_64_0, Initial residual = 0.0443267996, Final residual = 4.69533271e-05, No Iterations 3
GAMG:  Solving for ILambda_65_0, Initial residual = 0.0345437707, Final residual = 5.60839376e-05, No Iterations 3
GAMG:  Solving for ILambda_66_0, Initial residual = 0.0332772639, Final residual = 5.54416962e-05, No Iterations 3
GAMG:  Solving for ILambda_67_0, Initial residual = 0.0377357123, Final residual = 6.91391838e-05, No Iterations 3
GAMG:  Solving for ILambda_68_0, Initial residual = 0.0430805865, Final residual = 1.82658885e-05, No Iterations 4
GAMG:  Solving for ILambda_69_0, Initial residual = 0.0483831791, Final residual = 2.00746869e-05, No Iterations 4
GAMG:  Solving for ILambda_70_0, Initial residual = 0.0501200938, Final residual = 2.38443429e-05, No Iterations 4
GAMG:  Solving for ILambda_71_0, Initial residual = 0.0502829818, Final residual = 4.25339783e-05, No Iterations 4
GAMG:  Solving for ILambda_72_0, Initial residual = 0.048758324, Final residual = 2.20747535e-05, No Iterations 4
GAMG:  Solving for ILambda_73_0, Initial residual = 0.0525829893, Final residual = 8.09137243e-05, No Iterations 3
GAMG:  Solving for ILambda_74_0, Initial residual = 0.0510578216, Final residual = 7.88472902e-05, No Iterations 3
GAMG:  Solving for ILambda_75_0, Initial residual = 0.04304549, Final residual = 7.21050494e-05, No Iterations 3
GAMG:  Solving for ILambda_76_0, Initial residual = 0.0341104974, Final residual = 5.06705775e-05, No Iterations 3
GAMG:  Solving for ILambda_77_0, Initial residual = 0.0260571032, Final residual = 3.40909998e-05, No Iterations 3
GAMG:  Solving for ILambda_78_0, Initial residual = 0.0279711364, Final residual = 3.03812648e-05, No Iterations 3
GAMG:  Solving for ILambda_79_0, Initial residual = 0.0399085402, Final residual = 2.96002692e-05, No Iterations 3
GAMG:  Solving for ILambda_80_0, Initial residual = 0.0503377602, Final residual = 3.82397512e-05, No Iterations 3
GAMG:  Solving for ILambda_81_0, Initial residual = 0.0590005262, Final residual = 5.03853517e-05, No Iterations 3
GAMG:  Solving for ILambda_82_0, Initial residual = 0.0618961463, Final residual = 6.78181013e-05, No Iterations 3
GAMG:  Solving for ILambda_83_0, Initial residual = 0.0504353661, Final residual = 8.14512283e-05, No Iterations 3
GAMG:  Solving for ILambda_84_0, Initial residual = 0.0502658562, Final residual = 9.97923938e-05, No Iterations 3
GAMG:  Solving for ILambda_85_0, Initial residual = 0.0627746359, Final residual = 7.45334746e-05, No Iterations 3
GAMG:  Solving for ILambda_86_0, Initial residual = 0.0601343528, Final residual = 5.84923949e-05, No Iterations 3
GAMG:  Solving for ILambda_87_0, Initial residual = 0.0515267293, Final residual = 4.67948959e-05, No Iterations 3
GAMG:  Solving for ILambda_88_0, Initial residual = 0.0401034907, Final residual = 3.97365255e-05, No Iterations 3
GAMG:  Solving for ILambda_89_0, Initial residual = 0.0281528736, Final residual = 4.06360177e-05, No Iterations 3
GAMG:  Solving for ILambda_90_0, Initial residual = 0.0263519756, Final residual = 4.29362085e-05, No Iterations 3
GAMG:  Solving for ILambda_91_0, Initial residual = 0.03417633, Final residual = 6.18673781e-05, No Iterations 3
GAMG:  Solving for ILambda_92_0, Initial residual = 0.0427354181, Final residual = 9.50403917e-05, No Iterations 3
GAMG:  Solving for ILambda_93_0, Initial residual = 0.0504853564, Final residual = 9.7380064e-05, No Iterations 3
GAMG:  Solving for ILambda_94_0, Initial residual = 0.0522394808, Final residual = 1.53205689e-05, No Iterations 4
GAMG:  Solving for ILambda_95_0, Initial residual = 0.049182888, Final residual = 2.50522826e-05, No Iterations 4
GAMG:  Solving for ILambda_96_0, Initial residual = 0.0450222805, Final residual = 7.0895424e-05, No Iterations 3
GAMG:  Solving for ILambda_97_0, Initial residual = 0.0546212125, Final residual = 6.52495601e-05, No Iterations 3
GAMG:  Solving for ILambda_98_0, Initial residual = 0.052333848, Final residual = 6.67553058e-05, No Iterations 3
GAMG:  Solving for ILambda_99_0, Initial residual = 0.0426030538, Final residual = 6.41564244e-05, No Iterations 3
GAMG:  Solving for ILambda_100_0, Initial residual = 0.0308738459, Final residual = 4.90450409e-05, No Iterations 3
GAMG:  Solving for ILambda_101_0, Initial residual = 0.0182034103, Final residual = 3.59559591e-05, No Iterations 3
GAMG:  Solving for ILambda_102_0, Initial residual = 0.0193082487, Final residual = 3.65450873e-05, No Iterations 3
GAMG:  Solving for ILambda_103_0, Initial residual = 0.0338949554, Final residual = 4.50606429e-05, No Iterations 3
GAMG:  Solving for ILambda_104_0, Initial residual = 0.0461204665, Final residual = 5.65013272e-05, No Iterations 3
GAMG:  Solving for ILambda_105_0, Initial residual = 0.0558199411, Final residual = 7.04069788e-05, No Iterations 3
GAMG:  Solving for ILambda_106_0, Initial residual = 0.0589007681, Final residual = 8.13383083e-05, No Iterations 3
GAMG:  Solving for ILambda_107_0, Initial residual = 0.0436739957, Final residual = 6.39826462e-05, No Iterations 3
GAMG:  Solving for ILambda_108_0, Initial residual = 0.0429197475, Final residual = 5.16326873e-05, No Iterations 3
GAMG:  Solving for ILambda_109_0, Initial residual = 0.0596373725, Final residual = 6.33316202e-05, No Iterations 3
GAMG:  Solving for ILambda_110_0, Initial residual = 0.0566403828, Final residual = 6.16866108e-05, No Iterations 3
GAMG:  Solving for ILambda_111_0, Initial residual = 0.046751656, Final residual = 6.61102632e-05, No Iterations 3
GAMG:  Solving for ILambda_112_0, Initial residual = 0.0340840731, Final residual = 4.96673257e-05, No Iterations 3
GAMG:  Solving for ILambda_113_0, Initial residual = 0.0192278335, Final residual = 4.43508657e-05, No Iterations 3
GAMG:  Solving for ILambda_114_0, Initial residual = 0.018217894, Final residual = 5.06582817e-05, No Iterations 3
GAMG:  Solving for ILambda_115_0, Initial residual = 0.0310120503, Final residual = 6.72951965e-05, No Iterations 3
GAMG:  Solving for ILambda_116_0, Initial residual = 0.0427460785, Final residual = 8.95593229e-05, No Iterations 3
GAMG:  Solving for ILambda_117_0, Initial residual = 0.0519796881, Final residual = 1.8829839e-05, No Iterations 4
GAMG:  Solving for ILambda_118_0, Initial residual = 0.0551525292, Final residual = 1.77445613e-05, No Iterations 4
GAMG:  Solving for ILambda_119_0, Initial residual = 0.0458399712, Final residual = 9.05555797e-05, No Iterations 3
GAMG:  Solving for ILambda_120_0, Initial residual = 0.0415120204, Final residual = 6.64072715e-05, No Iterations 3
GAMG:  Solving for ILambda_121_0, Initial residual = 0.0542269392, Final residual = 7.86747681e-05, No Iterations 3
GAMG:  Solving for ILambda_122_0, Initial residual = 0.0516467015, Final residual = 5.80423723e-05, No Iterations 3
GAMG:  Solving for ILambda_123_0, Initial residual = 0.0428246715, Final residual = 4.73607458e-05, No Iterations 3
GAMG:  Solving for ILambda_124_0, Initial residual = 0.0303498075, Final residual = 4.26142214e-05, No Iterations 3
GAMG:  Solving for ILambda_125_0, Initial residual = 0.0172786302, Final residual = 3.34236008e-05, No Iterations 3
GAMG:  Solving for ILambda_126_0, Initial residual = 0.0162429706, Final residual = 3.68557965e-05, No Iterations 3
GAMG:  Solving for ILambda_127_0, Initial residual = 0.0276767141, Final residual = 5.33891299e-05, No Iterations 3
GAMG:  Solving for ILambda_128_0, Initial residual = 0.0380618252, Final residual = 7.33253659e-05, No Iterations 3
GAMG:  Solving for ILambda_129_0, Initial residual = 0.047321054, Final residual = 8.74020211e-05, No Iterations 3
GAMG:  Solving for ILambda_130_0, Initial residual = 0.050377969, Final residual = 1.78601563e-05, No Iterations 4
GAMG:  Solving for ILambda_131_0, Initial residual = 0.0383957319, Final residual = 8.47740026e-05, No Iterations 3
GAMG:  Solving for ILambda_132_0, Initial residual = 0.0376836518, Final residual = 7.05836989e-05, No Iterations 3
GAMG:  Solving for ILambda_133_0, Initial residual = 0.0507751146, Final residual = 6.81326614e-05, No Iterations 3
GAMG:  Solving for ILambda_134_0, Initial residual = 0.0477101192, Final residual = 7.45537964e-05, No Iterations 3
GAMG:  Solving for ILambda_135_0, Initial residual = 0.0385077, Final residual = 7.75775763e-05, No Iterations 3
GAMG:  Solving for ILambda_136_0, Initial residual = 0.0278222916, Final residual = 5.84886795e-05, No Iterations 3
GAMG:  Solving for ILambda_137_0, Initial residual = 0.0164377109, Final residual = 4.2844381e-05, No Iterations 3
GAMG:  Solving for ILambda_138_0, Initial residual = 0.0174712379, Final residual = 3.8234019e-05, No Iterations 3
GAMG:  Solving for ILambda_139_0, Initial residual = 0.0306466218, Final residual = 4.98772517e-05, No Iterations 3
GAMG:  Solving for ILambda_140_0, Initial residual = 0.0430575483, Final residual = 6.19248281e-05, No Iterations 3
GAMG:  Solving for ILambda_141_0, Initial residual = 0.0516028354, Final residual = 9.57476025e-05, No Iterations 3
GAMG:  Solving for ILambda_142_0, Initial residual = 0.055298988, Final residual = 1.5946389e-05, No Iterations 4
GAMG:  Solving for ILambda_143_0, Initial residual = 0.0414735507, Final residual = 7.22283544e-05, No Iterations 3
GAMG:  Solving for ILambda_144_0, Initial residual = 0.0406907153, Final residual = 7.20869417e-05, No Iterations 3
GAMG:  Solving for ILambda_145_0, Initial residual = 0.0510504808, Final residual = 6.47864409e-05, No Iterations 3
GAMG:  Solving for ILambda_146_0, Initial residual = 0.0491405451, Final residual = 5.60602146e-05, No Iterations 3
GAMG:  Solving for ILambda_147_0, Initial residual = 0.0422783369, Final residual = 3.64727688e-05, No Iterations 3
GAMG:  Solving for ILambda_148_0, Initial residual = 0.0321302488, Final residual = 3.09085822e-05, No Iterations 3
GAMG:  Solving for ILambda_149_0, Initial residual = 0.0222408892, Final residual = 2.83739807e-05, No Iterations 3
[...]
GAMG:  Solving for ILambda_33_0, Initial residual = 0.00267884232, Final residual = 1.16919656e-05, No Iterations 2
GAMG:  Solving for ILambda_34_0, Initial residual = 0.00261598243, Final residual = 1.65166686e-05, No Iterations 2
GAMG:  Solving for ILambda_35_0, Initial residual = 0.00263465071, Final residual = 2.26207593e-05, No Iterations 2
GAMG:  Solving for ILambda_36_0, Initial residual = 0.00260729765, Final residual = 2.13168124e-05, No Iterations 2
GAMG:  Solving for ILambda_37_0, Initial residual = 0.00286583493, Final residual = 1.89894225e-05, No Iterations 2
GAMG:  Solving for ILambda_38_0, Initial residual = 0.00279912058, Final residual = 1.58239101e-05, No Iterations 2
GAMG:  Solving for ILambda_39_0, Initial residual = 0.00247593687, Final residual = 1.38749903e-05, No Iterations 2
GAMG:  Solving for ILambda_40_0, Initial residual = 0.00213301514, Final residual = 1.38797439e-05, No Iterations 2
GAMG:  Solving for ILambda_41_0, Initial residual = 0.0022267994, Final residual = 1.83160534e-05, No Iterations 2
GAMG:  Solving for ILambda_42_0, Initial residual = 0.0021323609, Final residual = 1.92301634e-05, No Iterations 2
GAMG:  Solving for ILambda_43_0, Initial residual = 0.00225300866, Final residual = 1.51750494e-05, No Iterations 2
GAMG:  Solving for ILambda_44_0, Initial residual = 0.00291846772, Final residual = 1.85314109e-05, No Iterations 2
GAMG:  Solving for ILambda_45_0, Initial residual = 0.00375954338, Final residual = 2.35079416e-05, No Iterations 2
GAMG:  Solving for ILambda_46_0, Initial residual = 0.00409674285, Final residual = 2.94628597e-05, No Iterations 2
GAMG:  Solving for ILambda_47_0, Initial residual = 0.00382903689, Final residual = 2.63156118e-05, No Iterations 2
GAMG:  Solving for ILambda_48_0, Initial residual = 0.00378639511, Final residual = 2.70504065e-05, No Iterations 2
GAMG:  Solving for ILambda_49_0, Initial residual = 0.00400581755, Final residual = 2.45787053e-05, No Iterations 2
GAMG:  Solving for ILambda_50_0, Initial residual = 0.00354824991, Final residual = 2.21090903e-05, No Iterations 2
GAMG:  Solving for ILambda_51_0, Initial residual = 0.00277321633, Final residual = 1.47306477e-05, No Iterations 2
GAMG:  Solving for ILambda_52_0, Initial residual = 0.0019803067, Final residual = 1.12365779e-05, No Iterations 2
GAMG:  Solving for ILambda_53_0, Initial residual = 0.00180481709, Final residual = 1.5766408e-05, No Iterations 2
GAMG:  Solving for ILambda_54_0, Initial residual = 0.00207292838, Final residual = 2.41375742e-05, No Iterations 2
GAMG:  Solving for ILambda_55_0, Initial residual = 0.00227692055, Final residual = 8.40572851e-06, No Iterations 2
GAMG:  Solving for ILambda_56_0, Initial residual = 0.00257299608, Final residual = 1.03587101e-05, No Iterations 2
GAMG:  Solving for ILambda_57_0, Initial residual = 0.00262117425, Final residual = 1.14186693e-05, No Iterations 2
GAMG:  Solving for ILambda_58_0, Initial residual = 0.00319490212, Final residual = 1.5856757e-05, No Iterations 2
GAMG:  Solving for ILambda_59_0, Initial residual = 0.00343311176, Final residual = 2.29314451e-05, No Iterations 2
GAMG:  Solving for ILambda_60_0, Initial residual = 0.00339603597, Final residual = 2.66251208e-05, No Iterations 2
GAMG:  Solving for ILambda_61_0, Initial residual = 0.00318329934, Final residual = 1.9848671e-05, No Iterations 2
GAMG:  Solving for ILambda_62_0, Initial residual = 0.00258622926, Final residual = 1.53755735e-05, No Iterations 2
GAMG:  Solving for ILambda_63_0, Initial residual = 0.00265480263, Final residual = 1.42098644e-05, No Iterations 2
GAMG:  Solving for ILambda_64_0, Initial residual = 0.00234144978, Final residual = 1.39305678e-05, No Iterations 2
GAMG:  Solving for ILambda_65_0, Initial residual = 0.00169915724, Final residual = 1.38398705e-05, No Iterations 2
GAMG:  Solving for ILambda_66_0, Initial residual = 0.00164287297, Final residual = 1.38570763e-05, No Iterations 2
GAMG:  Solving for ILambda_67_0, Initial residual = 0.00204957781, Final residual = 1.5039489e-05, No Iterations 2
GAMG:  Solving for ILambda_68_0, Initial residual = 0.00280488541, Final residual = 2.06487606e-05, No Iterations 2
GAMG:  Solving for ILambda_69_0, Initial residual = 0.00351561669, Final residual = 2.91298738e-05, No Iterations 2
GAMG:  Solving for ILambda_70_0, Initial residual = 0.00396030738, Final residual = 3.14215349e-05, No Iterations 2
GAMG:  Solving for ILambda_71_0, Initial residual = 0.00383526131, Final residual = 3.61324491e-05, No Iterations 2
GAMG:  Solving for ILambda_72_0, Initial residual = 0.00272696377, Final residual = 2.04920509e-05, No Iterations 2
GAMG:  Solving for ILambda_73_0, Initial residual = 0.00306916621, Final residual = 1.68667522e-05, No Iterations 2
GAMG:  Solving for ILambda_74_0, Initial residual = 0.00315223757, Final residual = 1.58713727e-05, No Iterations 2
GAMG:  Solving for ILambda_75_0, Initial residual = 0.00239568558, Final residual = 1.15955785e-05, No Iterations 2
GAMG:  Solving for ILambda_76_0, Initial residual = 0.00145448581, Final residual = 7.55336339e-05, No Iterations 1
GAMG:  Solving for ILambda_77_0, Initial residual = 0.000973817671, Final residual = 6.00493418e-05, No Iterations 1
GAMG:  Solving for ILambda_78_0, Initial residual = 0.00116284404, Final residual = 7.76325279e-05, No Iterations 1
GAMG:  Solving for ILambda_79_0, Initial residual = 0.00188564151, Final residual = 9.64201338e-05, No Iterations 1
GAMG:  Solving for ILambda_80_0, Initial residual = 0.0024849716, Final residual = 8.54472951e-06, No Iterations 2
GAMG:  Solving for ILambda_81_0, Initial residual = 0.00240059487, Final residual = 1.13946861e-05, No Iterations 2
GAMG:  Solving for ILambda_82_0, Initial residual = 0.00245784957, Final residual = 1.60806813e-05, No Iterations 2
GAMG:  Solving for ILambda_83_0, Initial residual = 0.00270066397, Final residual = 2.33871237e-05, No Iterations 2
GAMG:  Solving for ILambda_84_0, Initial residual = 0.002693277, Final residual = 2.48825854e-05, No Iterations 2
GAMG:  Solving for ILambda_85_0, Initial residual = 0.00254032322, Final residual = 1.83804789e-05, No Iterations 2
GAMG:  Solving for ILambda_86_0, Initial residual = 0.00249934264, Final residual = 1.34853433e-05, No Iterations 2
GAMG:  Solving for ILambda_87_0, Initial residual = 0.0026710097, Final residual = 1.27167934e-05, No Iterations 2
GAMG:  Solving for ILambda_88_0, Initial residual = 0.00188051831, Final residual = 9.25442429e-06, No Iterations 2
GAMG:  Solving for ILambda_89_0, Initial residual = 0.00117891385, Final residual = 9.49014e-06, No Iterations 2
GAMG:  Solving for ILambda_90_0, Initial residual = 0.0010385793, Final residual = 8.96264049e-05, No Iterations 1
GAMG:  Solving for ILambda_91_0, Initial residual = 0.00151305092, Final residual = 1.18697334e-05, No Iterations 2
GAMG:  Solving for ILambda_92_0, Initial residual = 0.0024637159, Final residual = 1.75451717e-05, No Iterations 2
GAMG:  Solving for ILambda_93_0, Initial residual = 0.00315714855, Final residual = 2.42794943e-05, No Iterations 2
GAMG:  Solving for ILambda_94_0, Initial residual = 0.00312919158, Final residual = 2.3381778e-05, No Iterations 2
GAMG:  Solving for ILambda_95_0, Initial residual = 0.00276811454, Final residual = 2.47061264e-05, No Iterations 2
GAMG:  Solving for ILambda_96_0, Initial residual = 0.00160008564, Final residual = 2.21960292e-05, No Iterations 2
GAMG:  Solving for ILambda_97_0, Initial residual = 0.00237395028, Final residual = 1.51707491e-05, No Iterations 2
GAMG:  Solving for ILambda_98_0, Initial residual = 0.00259849709, Final residual = 1.21528466e-05, No Iterations 2
GAMG:  Solving for ILambda_99_0, Initial residual = 0.00215054735, Final residual = 9.39605661e-05, No Iterations 1
GAMG:  Solving for ILambda_100_0, Initial residual = 0.00116232811, Final residual = 6.50769919e-05, No Iterations 1
GAMG:  Solving for ILambda_102_0, Initial residual = 0.000809289102, Final residual = 6.93944945e-05, No Iterations 1
GAMG:  Solving for ILambda_103_0, Initial residual = 0.00140711782, Final residual = 8.89822652e-05, No Iterations 1
GAMG:  Solving for ILambda_104_0, Initial residual = 0.00225914431, Final residual = 1.21083106e-05, No Iterations 2
GAMG:  Solving for ILambda_105_0, Initial residual = 0.00243565619, Final residual = 1.86123883e-05, No Iterations 2
GAMG:  Solving for ILambda_106_0, Initial residual = 0.00222021993, Final residual = 1.62321035e-05, No Iterations 2
GAMG:  Solving for ILambda_107_0, Initial residual = 0.00175480486, Final residual = 2.46718702e-05, No Iterations 2
GAMG:  Solving for ILambda_108_0, Initial residual = 0.00171823137, Final residual = 2.25069745e-05, No Iterations 2
GAMG:  Solving for ILambda_109_0, Initial residual = 0.00216616548, Final residual = 1.28555992e-05, No Iterations 2
GAMG:  Solving for ILambda_110_0, Initial residual = 0.00246086244, Final residual = 1.23617226e-05, No Iterations 2
GAMG:  Solving for ILambda_111_0, Initial residual = 0.00241342848, Final residual = 1.45224706e-05, No Iterations 2
GAMG:  Solving for ILambda_112_0, Initial residual = 0.00135141394, Final residual = 8.74443163e-06, No Iterations 2
GAMG:  Solving for ILambda_115_0, Initial residual = 0.00122883128, Final residual = 1.20877742e-05, No Iterations 2
GAMG:  Solving for ILambda_116_0, Initial residual = 0.00223019908, Final residual = 1.64231836e-05, No Iterations 2
GAMG:  Solving for ILambda_117_0, Initial residual = 0.00265525768, Final residual = 2.14222398e-05, No Iterations 2
GAMG:  Solving for ILambda_118_0, Initial residual = 0.00255754001, Final residual = 2.49395209e-05, No Iterations 2
GAMG:  Solving for ILambda_119_0, Initial residual = 0.00172352332, Final residual = 2.88789597e-05, No Iterations 2
GAMG:  Solving for ILambda_120_0, Initial residual = 0.00142511271, Final residual = 2.46625416e-05, No Iterations 2
GAMG:  Solving for ILambda_121_0, Initial residual = 0.00211147251, Final residual = 1.40661304e-05, No Iterations 2
GAMG:  Solving for ILambda_122_0, Initial residual = 0.00263465679, Final residual = 1.37301939e-05, No Iterations 2
GAMG:  Solving for ILambda_123_0, Initial residual = 0.00223233208, Final residual = 9.55479521e-06, No Iterations 2
GAMG:  Solving for ILambda_124_0, Initial residual = 0.00118204472, Final residual = 6.85221949e-05, No Iterations 1
GAMG:  Solving for ILambda_127_0, Initial residual = 0.00111268528, Final residual = 7.8009129e-05, No Iterations 1
GAMG:  Solving for ILambda_128_0, Initial residual = 0.00212437792, Final residual = 1.386667e-05, No Iterations 2
GAMG:  Solving for ILambda_129_0, Initial residual = 0.0024329832, Final residual = 1.58618589e-05, No Iterations 2
GAMG:  Solving for ILambda_130_0, Initial residual = 0.00192126617, Final residual = 1.62977078e-05, No Iterations 2
GAMG:  Solving for ILambda_131_0, Initial residual = 0.00171071801, Final residual = 2.61720356e-05, No Iterations 2
GAMG:  Solving for ILambda_132_0, Initial residual = 0.00153048279, Final residual = 2.17000633e-05, No Iterations 2
GAMG:  Solving for ILambda_133_0, Initial residual = 0.0019364071, Final residual = 1.3806328e-05, No Iterations 2
GAMG:  Solving for ILambda_134_0, Initial residual = 0.0024298066, Final residual = 1.4191113e-05, No Iterations 2
GAMG:  Solving for ILambda_135_0, Initial residual = 0.00217429785, Final residual = 1.37251797e-05, No Iterations 2
GAMG:  Solving for ILambda_136_0, Initial residual = 0.00116918435, Final residual = 9.58162439e-05, No Iterations 1
GAMG:  Solving for ILambda_139_0, Initial residual = 0.00123923425, Final residual = 9.77431654e-05, No Iterations 1
GAMG:  Solving for ILambda_140_0, Initial residual = 0.00232543169, Final residual = 1.46949471e-05, No Iterations 2
GAMG:  Solving for ILambda_141_0, Initial residual = 0.00263907167, Final residual = 1.93263925e-05, No Iterations 2
GAMG:  Solving for ILambda_142_0, Initial residual = 0.00220106868, Final residual = 2.18730109e-05, No Iterations 2
GAMG:  Solving for ILambda_143_0, Initial residual = 0.0014164603, Final residual = 2.27929627e-05, No Iterations 2
GAMG:  Solving for ILambda_144_0, Initial residual = 0.00122920606, Final residual = 1.02496447e-05, No Iterations 2
GAMG:  Solving for ILambda_145_0, Initial residual = 0.00180541176, Final residual = 1.23236337e-05, No Iterations 2
GAMG:  Solving for ILambda_146_0, Initial residual = 0.00230573289, Final residual = 1.11917103e-05, No Iterations 2
GAMG:  Solving for ILambda_147_0, Initial residual = 0.00206593243, Final residual = 9.08940548e-06, No Iterations 2
GAMG:  Solving for ILambda_148_0, Initial residual = 0.00119674243, Final residual = 7.51142915e-05, No Iterations 1
GAMG:  Solving for ILambda_149_0, Initial residual = 0.000818331843, Final residual = 6.21254006e-05, No Iterations 1
GAMG:  Solving for ILambda_151_0, Initial residual = 0.00111923693, Final residual = 8.14590967e-05, No Iterations 1
GAMG:  Solving for ILambda_152_0, Initial residual = 0.00202545463, Final residual = 1.55245169e-05, No Iterations 2
GAMG:  Solving for ILambda_153_0, Initial residual = 0.00260414802, Final residual = 1.9671431e-05, No Iterations 2
GAMG:  Solving for ILambda_154_0, Initial residual = 0.00232063009, Final residual = 2.28555027e-05, No Iterations 2
GAMG:  Solving for ILambda_155_0, Initial residual = 0.00191840349, Final residual = 2.21277309e-05, No Iterations 2
GAMG:  Solving for ILambda_156_0, Initial residual = 0.00193512399, Final residual = 2.4961701e-05, No Iterations 2
GAMG:  Solving for ILambda_157_0, Initial residual = 0.00227563795, Final residual = 1.94849538e-05, No Iterations 2
GAMG:  Solving for ILambda_158_0, Initial residual = 0.00252706579, Final residual = 1.58349704e-05, No Iterations 2
GAMG:  Solving for ILambda_159_0, Initial residual = 0.00204679301, Final residual = 1.29816661e-05, No Iterations 2
GAMG:  Solving for ILambda_160_0, Initial residual = 0.0011202103, Final residual = 8.37797196e-05, No Iterations 1
GAMG:  Solving for ILambda_162_0, Initial residual = 0.000858119819, Final residual = 8.71369052e-05, No Iterations 1
GAMG:  Solving for ILambda_163_0, Initial residual = 0.00122900059, Final residual = 8.85719811e-05, No Iterations 1
GAMG:  Solving for ILambda_164_0, Initial residual = 0.00210402888, Final residual = 1.05614043e-05, No Iterations 2
GAMG:  Solving for ILambda_165_0, Initial residual = 0.00233671638, Final residual = 1.29911292e-05, No Iterations 2
GAMG:  Solving for ILambda_166_0, Initial residual = 0.00181778737, Final residual = 1.32169134e-05, No Iterations 2
GAMG:  Solving for ILambda_167_0, Initial residual = 0.00126688612, Final residual = 1.1935997e-05, No Iterations 2
GAMG:  Solving for ILambda_168_0, Initial residual = 0.00191541704, Final residual = 2.90790493e-05, No Iterations 2
GAMG:  Solving for ILambda_169_0, Initial residual = 0.00212346999, Final residual = 1.55984569e-05, No Iterations 2
GAMG:  Solving for ILambda_170_0, Initial residual = 0.0023511717, Final residual = 1.36051305e-05, No Iterations 2
GAMG:  Solving for ILambda_171_0, Initial residual = 0.00183253958, Final residual = 8.67789502e-06, No Iterations 2
GAMG:  Solving for ILambda_172_0, Initial residual = 0.00125688296, Final residual = 8.3508282e-05, No Iterations 1
GAMG:  Solving for ILambda_173_0, Initial residual = 0.000958800011, Final residual = 7.2127744e-05, No Iterations 1
GAMG:  Solving for ILambda_175_0, Initial residual = 0.0012146303, Final residual = 9.45995061e-05, No Iterations 1
GAMG:  Solving for ILambda_176_0, Initial residual = 0.00178326898, Final residual = 1.66234618e-05, No Iterations 2
GAMG:  Solving for ILambda_177_0, Initial residual = 0.00218292908, Final residual = 1.99191733e-05, No Iterations 2
GAMG:  Solving for ILambda_178_0, Initial residual = 0.00239373114, Final residual = 2.25959273e-05, No Iterations 2
GAMG:  Solving for ILambda_179_0, Initial residual = 0.00220795221, Final residual = 2.17919532e-05, No Iterations 2
GAMG:  Solving for ILambda_180_0, Initial residual = 0.00228070396, Final residual = 2.31607491e-05, No Iterations 2
GAMG:  Solving for ILambda_181_0, Initial residual = 0.00239041592, Final residual = 1.99728359e-05, No Iterations 2
GAMG:  Solving for ILambda_182_0, Initial residual = 0.00221977806, Final residual = 1.7356157e-05, No Iterations 2
GAMG:  Solving for ILambda_183_0, Initial residual = 0.00180300642, Final residual = 1.54868665e-05, No Iterations 2
GAMG:  Solving for ILambda_184_0, Initial residual = 0.00128268582, Final residual = 1.12495098e-05, No Iterations 2
GAMG:  Solving for ILambda_185_0, Initial residual = 0.00101097947, Final residual = 8.9562911e-05, No Iterations 1
GAMG:  Solving for ILambda_186_0, Initial residual = 0.00108781654, Final residual = 9.66404465e-05, No Iterations 1
GAMG:  Solving for ILambda_187_0, Initial residual = 0.00129866168, Final residual = 9.11374208e-05, No Iterations 1
GAMG:  Solving for ILambda_188_0, Initial residual = 0.00191997642, Final residual = 1.37326528e-05, No Iterations 2
GAMG:  Solving for ILambda_189_0, Initial residual = 0.00234233345, Final residual = 1.32747397e-05, No Iterations 2
GAMG:  Solving for ILambda_190_0, Initial residual = 0.00207294134, Final residual = 1.48733992e-05, No Iterations 2
GAMG:  Solving for ILambda_191_0, Initial residual = 0.0018650041, Final residual = 2.06011123e-05, No Iterations 2
GAMG:  Solving for ILambda_192_0, Initial residual = 0.00217494781, Final residual = 1.85248621e-05, No Iterations 2
GAMG:  Solving for ILambda_193_0, Initial residual = 0.0019727926, Final residual = 1.38557082e-05, No Iterations 2
GAMG:  Solving for ILambda_194_0, Initial residual = 0.00169534185, Final residual = 1.04622455e-05, No Iterations 2
GAMG:  Solving for ILambda_201_0, Initial residual = 0.00163797093, Final residual = 1.87638525e-05, No Iterations 2
GAMG:  Solving for ILambda_202_0, Initial residual = 0.00158573608, Final residual = 1.89509008e-05, No Iterations 2
GAMG:  Solving for ILambda_203_0, Initial residual = 0.00171261009, Final residual = 2.49560238e-05, No Iterations 2
GAMG:  Solving for ILambda_204_0, Initial residual = 0.00172709843, Final residual = 2.53659832e-05, No Iterations 2
GAMG:  Solving for ILambda_205_0, Initial residual = 0.00156859113, Final residual = 1.73805384e-05, No Iterations 2
GAMG:  Solving for ILambda_206_0, Initial residual = 0.00172591385, Final residual = 1.80943343e-05, No Iterations 2
GAMG:  Solving for ILambda_207_0, Initial residual = 0.0015185768, Final residual = 1.57925361e-05, No Iterations 2
GAMG:  Solving for ILambda_213_0, Initial residual = 0.00170174161, Final residual = 9.57409702e-06, No Iterations 2
GAMG:  Solving for ILambda_214_0, Initial residual = 0.00190685418, Final residual = 1.17146475e-05, No Iterations 2
GAMG:  Solving for ILambda_215_0, Initial residual = 0.00218852391, Final residual = 1.74565103e-05, No Iterations 2
GAMG:  Solving for p_rgh, Initial residual = 0.014923168, Final residual = 5.77829674e-05, No Iterations 2
time step continuity errors : sum local = 2.45806455e-05, global = -8.99266812e-06, cumulative = -8.99266812e-06
rho max/min : 1.20057727 1.14723641
smoothSolver:  Solving for epsilon, Initial residual = 0.00117494927, Final residual = 2.78716558e-05, No Iterations 2
smoothSolver:  Solving for k, Initial residual = 0.00152944024, Final residual = 6.35855091e-05, No Iterations 2
ExecutionTime = 1042.35 s  ClockTime = 1060 s

yPlusRAS yplusRAS output:
    patch room_SIDE2 y+ : min = 0.246176503, max = 16.097094, average = 2.8626857
    patch room_FLOOR y+ : min = 0.108632708, max = 9.228823, average = 2.57173758
    patch room_CEILING y+ : min = 0.410768597, max = 14.6147222, average = 2.82784969
    patch room_BACK y+ : min = 0.239168507, max = 28.6054836, average = 3.42073077
    patch room_SIDE1 y+ : min = 0.237372943, max = 17.2117813, average = 2.86027454
    patch manikin y+ : min = 0.0238756908, max = 6.81985289, average = 0.665826474
    writing field yPlusRAS

End

Finalising parallel run
