/*---------------------------------------------------------------------------*\
| =========                 |                                                 |
| \\      /  F ield         | OpenFOAM: The Open Source CFD Toolbox           |
|  \\    /   O peration     | Version:  2.3.1                                 |
|   \\  /    A nd           | Web:      www.OpenFOAM.org                      |
|    \\/     M anipulation  |                                                 |
\*---------------------------------------------------------------------------*/
Build  : 2.3.1-bcfaaa7b8660
Exec   : radiationFoam -parallel
Date   : Apr 18 2017
Time   : 17:54:56
Host   : "ubuntu"
PID    : 12157
Case   : /home/cong/Desktop/AIVC/Case1
nProcs : 4
Slaves : 
3
(
"ubuntu.12158"
"ubuntu.12159"
"ubuntu.12160"
)

Pstream initialized with:
    floatTransfer      : 0
    nProcsSimpleSum    : 0
    commsType          : nonBlocking
    polling iterations : 0
sigFpe : Enabling floating point exception trapping (FOAM_SIGFPE).
fileModificationChecking : Monitoring run-time modified files using timeStampMaster
allowSystemOperations : Allowing user-supplied system call operations

// * * * * * * * * * * * * * * * * * * * * * * * * * * * * * * * * * * * * * //
Create time

Create mesh for time = 4000


Reading g
Reading thermophysical properties

Selecting thermodynamics package 
{
    type            heRhoThermo;
    mixture         pureMixture;
    transport       const;
    thermo          hConst;
    equationOfState perfectGas;
    specie          specie;
    energy          sensibleEnthalpy;
}

Reading field U

Reading/calculating face flux field phi

Creating turbulence model

Selecting RAS turbulence model kEpsilon
kEpsilonCoeffs
{
    Cmu             0.09;
    C1              1.44;
    C2              1.92;
    C3              -0.33;
    sigmak          1;
    sigmaEps        1.3;
    Prt             1;
}

Calculating field g.h

Reading field p_rgh

No finite volume options present

Selecting radiationModel fvDOM
Selecting absorptionEmissionModel none
Selecting scatterModel none
Selecting sootModel none
fvDOM : Allocated 240 rays with average orientation:
	I0 : omega : 	0.0128133741
	I1 : omega : 	0.0128133741
	I2 : omega : 	0.0128133741
	I3 : omega : 	0.0128133741
	I4 : omega : 	0.0128133741
	I5 : omega : 	0.0128133741
	I6 : omega : 	0.0128133741
	I7 : omega : 	0.0128133741
	I8 : omega : 	0.0128133741
	I9 : omega : 	0.0128133741
	I10 : omega : 	0.0128133741
	I11 : omega : 	0.0128133741
	I12 : omega : 	0.0128133741
	I13 : omega : 	0.0128133741
	I14 : omega : 	0.0128133741
	I15 : omega : 	0.0128133741
	I16 : omega : 	0.0128133741
	I17 : omega : 	0.0128133741
	I18 : omega : 	0.0128133741
	I19 : omega : 	0.0128133741
	I20 : omega : 	0.0128133741
	I21 : omega : 	0.0128133741
	I22 : omega : 	0.0128133741
	I23 : omega : 	0.0128133741
	I24 : omega : 	0.0371858599
	I25 : omega : 	0.0371858599
	I26 : omega : 	0.0371858599
	I27 : omega : 	0.0371858599
	I28 : omega : 	0.0371858599
	I29 : omega : 	0.0371858599
	I30 : omega : 	0.0371858599
	I31 : omega : 	0.0371858599
	I32 : omega : 	0.0371858599
	I33 : omega : 	0.0371858599
	I34 : omega : 	0.0371858599
	I35 : omega : 	0.0371858599
	I36 : omega : 	0.0371858599
	I37 : omega : 	0.0371858599
	I38 : omega : 	0.0371858599
	I39 : omega : 	0.0371858599
	I40 : omega : 	0.0371858599
	I41 : omega : 	0.0371858599
	I42 : omega : 	0.0371858599
	I43 : omega : 	0.0371858599
	I44 : omega : 	0.0371858599
	I45 : omega : 	0.0371858599
	I46 : omega : 	0.0371858599
	I47 : omega : 	0.0371858599
	I48 : omega : 	0.0579183346
	I49 : omega : 	0.0579183346
	I50 : omega : 	0.0579183346
	I51 : omega : 	0.0579183346
	I52 : omega : 	0.0579183346
	I53 : omega : 	0.0579183346
	I54 : omega : 	0.0579183346
	I55 : omega : 	0.0579183346
	I56 : omega : 	0.0579183346
	I57 : omega : 	0.0579183346
	I58 : omega : 	0.0579183346
	I59 : omega : 	0.0579183346
	I60 : omega : 	0.0579183346
	I61 : omega : 	0.0579183346
	I62 : omega : 	0.0579183346
	I63 : omega : 	0.0579183346
	I64 : omega : 	0.0579183346
	I65 : omega : 	0.0579183346
	I66 : omega : 	0.0579183346
	I67 : omega : 	0.0579183346
	I68 : omega : 	0.0579183346
	I69 : omega : 	0.0579183346
	I70 : omega : 	0.0579183346
	I71 : omega : 	0.0579183346
	I72 : omega : 	0.0729813593
	I73 : omega : 	0.0729813593
	I74 : omega : 	0.0729813593
	I75 : omega : 	0.0729813593
	I76 : omega : 	0.0729813593
	I77 : omega : 	0.0729813593
	I78 : omega : 	0.0729813593
	I79 : omega : 	0.0729813593
	I80 : omega : 	0.0729813593
	I81 : omega : 	0.0729813593
	I82 : omega : 	0.0729813593
	I83 : omega : 	0.0729813593
	I84 : omega : 	0.0729813593
	I85 : omega : 	0.0729813593
	I86 : omega : 	0.0729813593
	I87 : omega : 	0.0729813593
	I88 : omega : 	0.0729813593
	I89 : omega : 	0.0729813593
	I90 : omega : 	0.0729813593
	I91 : omega : 	0.0729813593
	I92 : omega : 	0.0729813593
	I93 : omega : 	0.0729813593
	I94 : omega : 	0.0729813593
	I95 : omega : 	0.0729813593
	I96 : omega : 	0.0809004599
	I97 : omega : 	0.0809004599
	I98 : omega : 	0.0809004599
	I99 : omega : 	0.0809004599
	I100 : omega : 	0.0809004599
	I101 : omega : 	0.0809004599
	I102 : omega : 	0.0809004599
	I103 : omega : 	0.0809004599
	I104 : omega : 	0.0809004599
	I105 : omega : 	0.0809004599
	I106 : omega : 	0.0809004599
	I107 : omega : 	0.0809004599
	I108 : omega : 	0.0809004599
	I109 : omega : 	0.0809004599
	I110 : omega : 	0.0809004599
	I111 : omega : 	0.0809004599
	I112 : omega : 	0.0809004599
	I113 : omega : 	0.0809004599
	I114 : omega : 	0.0809004599
	I115 : omega : 	0.0809004599
	I116 : omega : 	0.0809004599
	I117 : omega : 	0.0809004599
	I118 : omega : 	0.0809004599
	I119 : omega : 	0.0809004599
	I120 : omega : 	0.0809004599
	I121 : omega : 	0.0809004599
	I122 : omega : 	0.0809004599
	I123 : omega : 	0.0809004599
	I124 : omega : 	0.0809004599
	I125 : omega : 	0.0809004599
	I126 : omega : 	0.0809004599
	I127 : omega : 	0.0809004599
	I128 : omega : 	0.0809004599
	I129 : omega : 	0.0809004599
	I130 : omega : 	0.0809004599
	I131 : omega : 	0.0809004599
	I132 : omega : 	0.0809004599
	I133 : omega : 	0.0809004599
	I134 : omega : 	0.0809004599
	I135 : omega : 	0.0809004599
	I136 : omega : 	0.0809004599
	I137 : omega : 	0.0809004599
	I138 : omega : 	0.0809004599
	I139 : omega : 	0.0809004599
	I140 : omega : 	0.0809004599
	I141 : omega : 	0.0809004599
	I142 : omega : 	0.0809004599
	I143 : omega : 	0.0809004599
	I144 : omega : 	0.0729813593
	I145 : omega : 	0.0729813593
	I146 : omega : 	0.0729813593
	I147 : omega : 	0.0729813593
	I148 : omega : 	0.0729813593
	I149 : omega : 	0.0729813593
	I150 : omega : 	0.0729813593
	I151 : omega : 	0.0729813593
	I152 : omega : 	0.0729813593
	I153 : omega : 	0.0729813593
	I154 : omega : 	0.0729813593
	I155 : omega : 	0.0729813593
	I156 : omega : 	0.0729813593
	I157 : omega : 	0.0729813593
	I158 : omega : 	0.0729813593
	I159 : omega : 	0.0729813593
	I160 : omega : 	0.0729813593
	I161 : omega : 	0.0729813593
	I162 : omega : 	0.0729813593
	I163 : omega : 	0.0729813593
	I164 : omega : 	0.0729813593
	I165 : omega : 	0.0729813593
	I166 : omega : 	0.0729813593
	I167 : omega : 	0.0729813593
	I168 : omega : 	0.0579183346
	I169 : omega : 	0.0579183346
	I170 : omega : 	0.0579183346
	I171 : omega : 	0.0579183346
	I172 : omega : 	0.0579183346
	I173 : omega : 	0.0579183346
	I174 : omega : 	0.0579183346
	I175 : omega : 	0.0579183346
	I176 : omega : 	0.0579183346
	I177 : omega : 	0.0579183346
	I178 : omega : 	0.0579183346
	I179 : omega : 	0.0579183346
	I180 : omega : 	0.0579183346
	I181 : omega : 	0.0579183346
	I182 : omega : 	0.0579183346
	I183 : omega : 	0.0579183346
	I184 : omega : 	0.0579183346
	I185 : omega : 	0.0579183346
	I186 : omega : 	0.0579183346
	I187 : omega : 	0.0579183346
	I188 : omega : 	0.0579183346
	I189 : omega : 	0.0579183346
	I190 : omega : 	0.0579183346
	I191 : omega : 	0.0579183346
	I192 : omega : 	0.0371858599
	I193 : omega : 	0.0371858599
	I194 : omega : 	0.0371858599
	I195 : omega : 	0.0371858599
	I196 : omega : 	0.0371858599
	I197 : omega : 	0.0371858599
	I198 : omega : 	0.0371858599
	I199 : omega : 	0.0371858599
	I200 : omega : 	0.0371858599
	I201 : omega : 	0.0371858599
	I202 : omega : 	0.0371858599
	I203 : omega : 	0.0371858599
	I204 : omega : 	0.0371858599
	I205 : omega : 	0.0371858599
	I206 : omega : 	0.0371858599
	I207 : omega : 	0.0371858599
	I208 : omega : 	0.0371858599
	I209 : omega : 	0.0371858599
	I210 : omega : 	0.0371858599
	I211 : omega : 	0.0371858599
	I212 : omega : 	0.0371858599
	I213 : omega : 	0.0371858599
	I214 : omega : 	0.0371858599
	I215 : omega : 	0.0371858599
	I216 : omega : 	0.0128133741
	I217 : omega : 	0.0128133741
	I218 : omega : 	0.0128133741
	I219 : omega : 	0.0128133741
	I220 : omega : 	0.0128133741
	I221 : omega : 	0.0128133741
	I222 : omega : 	0.0128133741
	I223 : omega : 	0.0128133741
	I224 : omega : 	0.0128133741
	I225 : omega : 	0.0128133741
	I226 : omega : 	0.0128133741
	I227 : omega : 	0.0128133741
	I228 : omega : 	0.0128133741
	I229 : omega : 	0.0128133741
	I230 : omega : 	0.0128133741
	I231 : omega : 	0.0128133741
	I232 : omega : 	0.0128133741
	I233 : omega : 	0.0128133741
	I234 : omega : 	0.0128133741
	I235 : omega : 	0.0128133741
	I236 : omega : 	0.0128133741
	I237 : omega : 	0.0128133741
	I238 : omega : 	0.0128133741
	I239 : omega : 	0.0128133741


SIMPLE: convergence criteria
    field "(p_rgh|p)"	 tolerance 1e-07
    field U	 tolerance 1e-08
    field h	 tolerance 1e-08
    field "(k|epsilon|omega)"	 tolerance 1e-08


Starting time loop

Time = 4001

Radiation solver iter: 0
GAMG:  Solving for ILambda_0_0, Initial residual = 1, Final residual = 4.06627757e-05, No Iterations 5
GAMG:  Solving for ILambda_1_0, Initial residual = 1, Final residual = 7.961886e-05, No Iterations 4
GAMG:  Solving for ILambda_2_0, Initial residual = 1, Final residual = 6.12580494e-05, No Iterations 4
GAMG:  Solving for ILambda_3_0, Initial residual = 1, Final residual = 5.24551928e-05, No Iterations 4
GAMG:  Solving for ILambda_4_0, Initial residual = 1, Final residual = 5.42190683e-05, No Iterations 4
GAMG:  Solving for ILambda_5_0, Initial residual = 1, Final residual = 8.05920469e-05, No Iterations 4
GAMG:  Solving for ILambda_6_0, Initial residual = 1, Final residual = 7.04641688e-05, No Iterations 4
GAMG:  Solving for ILambda_7_0, Initial residual = 1, Final residual = 3.8108588e-05, No Iterations 4
GAMG:  Solving for ILambda_8_0, Initial residual = 1, Final residual = 2.82468953e-05, No Iterations 4
GAMG:  Solving for ILambda_9_0, Initial residual = 1, Final residual = 2.66223883e-05, No Iterations 4
GAMG:  Solving for ILambda_10_0, Initial residual = 1, Final residual = 3.92171277e-05, No Iterations 4
GAMG:  Solving for ILambda_11_0, Initial residual = 1, Final residual = 8.61877119e-05, No Iterations 4
GAMG:  Solving for ILambda_12_0, Initial residual = 1, Final residual = 7.80255679e-05, No Iterations 4
GAMG:  Solving for ILambda_13_0, Initial residual = 1, Final residual = 3.84408692e-05, No Iterations 4
GAMG:  Solving for ILambda_14_0, Initial residual = 1, Final residual = 2.95067074e-05, No Iterations 4
GAMG:  Solving for ILambda_15_0, Initial residual = 1, Final residual = 2.89704648e-05, No Iterations 4
GAMG:  Solving for ILambda_16_0, Initial residual = 1, Final residual = 3.97900965e-05, No Iterations 4
GAMG:  Solving for ILambda_17_0, Initial residual = 1, Final residual = 8.87069821e-05, No Iterations 4
GAMG:  Solving for ILambda_18_0, Initial residual = 1, Final residual = 9.11276906e-05, No Iterations 4
GAMG:  Solving for ILambda_19_0, Initial residual = 1, Final residual = 5.67715598e-05, No Iterations 4
GAMG:  Solving for ILambda_20_0, Initial residual = 1, Final residual = 5.31909345e-05, No Iterations 4
GAMG:  Solving for ILambda_21_0, Initial residual = 1, Final residual = 6.10915909e-05, No Iterations 4
GAMG:  Solving for ILambda_22_0, Initial residual = 1, Final residual = 7.79022913e-05, No Iterations 4
GAMG:  Solving for ILambda_23_0, Initial residual = 1, Final residual = 4.31430501e-05, No Iterations 5
GAMG:  Solving for ILambda_24_0, Initial residual = 1, Final residual = 3.15648736e-05, No Iterations 5
GAMG:  Solving for ILambda_25_0, Initial residual = 1, Final residual = 6.37020193e-05, No Iterations 4
GAMG:  Solving for ILambda_26_0, Initial residual = 1, Final residual = 4.58703018e-05, No Iterations 4
GAMG:  Solving for ILambda_27_0, Initial residual = 1, Final residual = 3.03191221e-05, No Iterations 4
GAMG:  Solving for ILambda_28_0, Initial residual = 1, Final residual = 2.22382902e-05, No Iterations 4
GAMG:  Solving for ILambda_29_0, Initial residual = 1, Final residual = 3.07675392e-05, No Iterations 4
GAMG:  Solving for ILambda_30_0, Initial residual = 1, Final residual = 2.94415728e-05, No Iterations 4
GAMG:  Solving for ILambda_31_0, Initial residual = 1, Final residual = 1.41021651e-05, No Iterations 4
GAMG:  Solving for ILambda_32_0, Initial residual = 1, Final residual = 9.07097759e-05, No Iterations 3
GAMG:  Solving for ILambda_33_0, Initial residual = 1, Final residual = 1.2829563e-05, No Iterations 4
GAMG:  Solving for ILambda_34_0, Initial residual = 1, Final residual = 2.17315926e-05, No Iterations 4
GAMG:  Solving for ILambda_35_0, Initial residual = 1, Final residual = 8.88283406e-05, No Iterations 4
GAMG:  Solving for ILambda_36_0, Initial residual = 1, Final residual = 8.78896077e-05, No Iterations 4
GAMG:  Solving for ILambda_37_0, Initial residual = 1, Final residual = 2.55006153e-05, No Iterations 4
GAMG:  Solving for ILambda_38_0, Initial residual = 1, Final residual = 1.59656058e-05, No Iterations 4
GAMG:  Solving for ILambda_39_0, Initial residual = 1, Final residual = 1.422138e-05, No Iterations 4
GAMG:  Solving for ILambda_40_0, Initial residual = 1, Final residual = 1.52961921e-05, No Iterations 4
GAMG:  Solving for ILambda_41_0, Initial residual = 1, Final residual = 3.7909592e-05, No Iterations 4
GAMG:  Solving for ILambda_42_0, Initial residual = 1, Final residual = 4.17337515e-05, No Iterations 4
GAMG:  Solving for ILambda_43_0, Initial residual = 1, Final residual = 2.60968172e-05, No Iterations 4
GAMG:  Solving for ILambda_44_0, Initial residual = 1, Final residual = 3.54558218e-05, No Iterations 4
GAMG:  Solving for ILambda_45_0, Initial residual = 1, Final residual = 5.22422712e-05, No Iterations 4
GAMG:  Solving for ILambda_46_0, Initial residual = 1, Final residual = 7.97899879e-05, No Iterations 4
GAMG:  Solving for ILambda_47_0, Initial residual = 1, Final residual = 3.29031157e-05, No Iterations 5
GAMG:  Solving for ILambda_48_0, Initial residual = 1, Final residual = 7.04396714e-05, No Iterations 4
GAMG:  Solving for ILambda_49_0, Initial residual = 1, Final residual = 3.81816964e-05, No Iterations 4
GAMG:  Solving for ILambda_50_0, Initial residual = 1, Final residual = 2.46689329e-05, No Iterations 4
GAMG:  Solving for ILambda_51_0, Initial residual = 1, Final residual = 2.23284063e-05, No Iterations 4
GAMG:  Solving for ILambda_52_0, Initial residual = 1, Final residual = 1.79646534e-05, No Iterations 4
GAMG:  Solving for ILambda_53_0, Initial residual = 1, Final residual = 2.03016844e-05, No Iterations 4
GAMG:  Solving for ILambda_54_0, Initial residual = 1, Final residual = 1.96561933e-05, No Iterations 4
GAMG:  Solving for ILambda_55_0, Initial residual = 1, Final residual = 7.70306256e-05, No Iterations 3
GAMG:  Solving for ILambda_56_0, Initial residual = 1, Final residual = 7.17088702e-05, No Iterations 3
GAMG:  Solving for ILambda_57_0, Initial residual = 1, Final residual = 9.5444547e-05, No Iterations 3
GAMG:  Solving for ILambda_58_0, Initial residual = 1, Final residual = 1.54410657e-05, No Iterations 4
GAMG:  Solving for ILambda_59_0, Initial residual = 1, Final residual = 3.90724766e-05, No Iterations 4
GAMG:  Solving for ILambda_60_0, Initial residual = 1, Final residual = 4.26523639e-05, No Iterations 4
GAMG:  Solving for ILambda_61_0, Initial residual = 1, Final residual = 1.88948711e-05, No Iterations 4
GAMG:  Solving for ILambda_62_0, Initial residual = 1, Final residual = 1.30047218e-05, No Iterations 4
GAMG:  Solving for ILambda_63_0, Initial residual = 1, Final residual = 8.38446137e-05, No Iterations 3
GAMG:  Solving for ILambda_64_0, Initial residual = 1, Final residual = 9.14245361e-05, No Iterations 3
GAMG:  Solving for ILambda_65_0, Initial residual = 1, Final residual = 2.34057778e-05, No Iterations 4
GAMG:  Solving for ILambda_66_0, Initial residual = 1, Final residual = 2.51251517e-05, No Iterations 4
GAMG:  Solving for ILambda_67_0, Initial residual = 1, Final residual = 2.28002455e-05, No Iterations 4
GAMG:  Solving for ILambda_68_0, Initial residual = 1, Final residual = 2.72222568e-05, No Iterations 4
GAMG:  Solving for ILambda_69_0, Initial residual = 1, Final residual = 3.06562203e-05, No Iterations 4
GAMG:  Solving for ILambda_70_0, Initial residual = 1, Final residual = 4.8256259e-05, No Iterations 4
GAMG:  Solving for ILambda_71_0, Initial residual = 1, Final residual = 7.61278349e-05, No Iterations 4
GAMG:  Solving for ILambda_72_0, Initial residual = 1, Final residual = 4.8869031e-05, No Iterations 4
GAMG:  Solving for ILambda_73_0, Initial residual = 1, Final residual = 2.34020421e-05, No Iterations 4
GAMG:  Solving for ILambda_74_0, Initial residual = 1, Final residual = 1.93054864e-05, No Iterations 4
GAMG:  Solving for ILambda_75_0, Initial residual = 1, Final residual = 1.92701445e-05, No Iterations 4
GAMG:  Solving for ILambda_76_0, Initial residual = 1, Final residual = 1.72978888e-05, No Iterations 4
GAMG:  Solving for ILambda_77_0, Initial residual = 1, Final residual = 1.58266959e-05, No Iterations 4
GAMG:  Solving for ILambda_78_0, Initial residual = 1, Final residual = 9.37085184e-05, No Iterations 3
GAMG:  Solving for ILambda_79_0, Initial residual = 1, Final residual = 7.46962222e-05, No Iterations 3
GAMG:  Solving for ILambda_80_0, Initial residual = 1, Final residual = 7.53449112e-05, No Iterations 3
GAMG:  Solving for ILambda_81_0, Initial residual = 1, Final residual = 9.323516e-05, No Iterations 3
GAMG:  Solving for ILambda_82_0, Initial residual = 1, Final residual = 1.54468547e-05, No Iterations 4
GAMG:  Solving for ILambda_83_0, Initial residual = 1, Final residual = 1.89697117e-05, No Iterations 4
GAMG:  Solving for ILambda_84_0, Initial residual = 1, Final residual = 2.19454054e-05, No Iterations 4
GAMG:  Solving for ILambda_85_0, Initial residual = 1, Final residual = 1.62279158e-05, No Iterations 4
GAMG:  Solving for ILambda_86_0, Initial residual = 1, Final residual = 1.27221756e-05, No Iterations 4
GAMG:  Solving for ILambda_87_0, Initial residual = 1, Final residual = 8.34987758e-05, No Iterations 3
GAMG:  Solving for ILambda_88_0, Initial residual = 1, Final residual = 9.0314443e-05, No Iterations 3
GAMG:  Solving for ILambda_89_0, Initial residual = 1, Final residual = 1.49507167e-05, No Iterations 4
GAMG:  Solving for ILambda_90_0, Initial residual = 1, Final residual = 1.97844114e-05, No Iterations 4
GAMG:  Solving for ILambda_91_0, Initial residual = 1, Final residual = 2.0357418e-05, No Iterations 4
GAMG:  Solving for ILambda_92_0, Initial residual = 1, Final residual = 2.40759322e-05, No Iterations 4
GAMG:  Solving for ILambda_93_0, Initial residual = 1, Final residual = 2.6292781e-05, No Iterations 4
GAMG:  Solving for ILambda_94_0, Initial residual = 1, Final residual = 3.17565447e-05, No Iterations 4
GAMG:  Solving for ILambda_95_0, Initial residual = 1, Final residual = 5.37240145e-05, No Iterations 4
GAMG:  Solving for ILambda_96_0, Initial residual = 1, Final residual = 3.79411014e-05, No Iterations 4
GAMG:  Solving for ILambda_97_0, Initial residual = 1, Final residual = 2.66301302e-05, No Iterations 4
GAMG:  Solving for ILambda_98_0, Initial residual = 1, Final residual = 2.66366902e-05, No Iterations 4
GAMG:  Solving for ILambda_99_0, Initial residual = 1, Final residual = 2.8630726e-05, No Iterations 4
GAMG:  Solving for ILambda_100_0, Initial residual = 1, Final residual = 2.44761364e-05, No Iterations 4
GAMG:  Solving for ILambda_101_0, Initial residual = 1, Final residual = 2.02781511e-05, No Iterations 4
GAMG:  Solving for ILambda_102_0, Initial residual = 1, Final residual = 1.90016667e-05, No Iterations 4
GAMG:  Solving for ILambda_103_0, Initial residual = 1, Final residual = 2.23368574e-05, No Iterations 4
GAMG:  Solving for ILambda_104_0, Initial residual = 1, Final residual = 2.88460253e-05, No Iterations 4
GAMG:  Solving for ILambda_105_0, Initial residual = 1, Final residual = 3.42963187e-05, No Iterations 4
GAMG:  Solving for ILambda_106_0, Initial residual = 1, Final residual = 3.79192833e-05, No Iterations 4
GAMG:  Solving for ILambda_107_0, Initial residual = 1, Final residual = 2.59204607e-05, No Iterations 4
GAMG:  Solving for ILambda_108_0, Initial residual = 1, Final residual = 2.34238411e-05, No Iterations 4
GAMG:  Solving for ILambda_109_0, Initial residual = 1, Final residual = 2.20453255e-05, No Iterations 4
GAMG:  Solving for ILambda_110_0, Initial residual = 1, Final residual = 2.51186488e-05, No Iterations 4
GAMG:  Solving for ILambda_111_0, Initial residual = 1, Final residual = 2.52451683e-05, No Iterations 4
GAMG:  Solving for ILambda_112_0, Initial residual = 1, Final residual = 2.43193689e-05, No Iterations 4
GAMG:  Solving for ILambda_113_0, Initial residual = 1, Final residual = 2.63842656e-05, No Iterations 4
GAMG:  Solving for ILambda_114_0, Initial residual = 1, Final residual = 2.88744171e-05, No Iterations 4
GAMG:  Solving for ILambda_115_0, Initial residual = 1, Final residual = 3.20970069e-05, No Iterations 4
GAMG:  Solving for ILambda_116_0, Initial residual = 1, Final residual = 4.3187902e-05, No Iterations 4
GAMG:  Solving for ILambda_117_0, Initial residual = 1, Final residual = 5.23542519e-05, No Iterations 4
GAMG:  Solving for ILambda_118_0, Initial residual = 1, Final residual = 5.80423764e-05, No Iterations 4
GAMG:  Solving for ILambda_119_0, Initial residual = 1, Final residual = 4.90502997e-05, No Iterations 4
GAMG:  Solving for ILambda_120_0, Initial residual = 1, Final residual = 2.67570368e-05, No Iterations 4
GAMG:  Solving for ILambda_121_0, Initial residual = 1, Final residual = 2.50389718e-05, No Iterations 4
GAMG:  Solving for ILambda_122_0, Initial residual = 1, Final residual = 3.00716511e-05, No Iterations 4
GAMG:  Solving for ILambda_123_0, Initial residual = 1, Final residual = 3.2655938e-05, No Iterations 4
GAMG:  Solving for ILambda_124_0, Initial residual = 1, Final residual = 2.66209017e-05, No Iterations 4
GAMG:  Solving for ILambda_125_0, Initial residual = 1, Final residual = 2.14664469e-05, No Iterations 4
GAMG:  Solving for ILambda_126_0, Initial residual = 1, Final residual = 2.74674975e-05, No Iterations 4
GAMG:  Solving for ILambda_127_0, Initial residual = 1, Final residual = 3.18126356e-05, No Iterations 4
GAMG:  Solving for ILambda_128_0, Initial residual = 1, Final residual = 4.31866954e-05, No Iterations 4
GAMG:  Solving for ILambda_129_0, Initial residual = 1, Final residual = 4.85345398e-05, No Iterations 4
GAMG:  Solving for ILambda_130_0, Initial residual = 1, Final residual = 6.0226996e-05, No Iterations 4
GAMG:  Solving for ILambda_131_0, Initial residual = 1, Final residual = 5.32673848e-05, No Iterations 4
GAMG:  Solving for ILambda_132_0, Initial residual = 1, Final residual = 4.53491953e-05, No Iterations 4
GAMG:  Solving for ILambda_133_0, Initial residual = 1, Final residual = 3.75626596e-05, No Iterations 4
GAMG:  Solving for ILambda_134_0, Initial residual = 1, Final residual = 3.80119704e-05, No Iterations 4
GAMG:  Solving for ILambda_135_0, Initial residual = 1, Final residual = 3.59148199e-05, No Iterations 4
GAMG:  Solving for ILambda_136_0, Initial residual = 1, Final residual = 3.18520364e-05, No Iterations 4
GAMG:  Solving for ILambda_137_0, Initial residual = 1, Final residual = 3.08097946e-05, No Iterations 4
GAMG:  Solving for ILambda_138_0, Initial residual = 1, Final residual = 2.58284412e-05, No Iterations 4
GAMG:  Solving for ILambda_139_0, Initial residual = 1, Final residual = 2.84570979e-05, No Iterations 4
GAMG:  Solving for ILambda_140_0, Initial residual = 1, Final residual = 3.66919936e-05, No Iterations 4
GAMG:  Solving for ILambda_141_0, Initial residual = 1, Final residual = 4.40423446e-05, No Iterations 4
GAMG:  Solving for ILambda_142_0, Initial residual = 1, Final residual = 3.8090383e-05, No Iterations 4
GAMG:  Solving for ILambda_143_0, Initial residual = 1, Final residual = 2.79458679e-05, No Iterations 4
GAMG:  Solving for ILambda_144_0, Initial residual = 1, Final residual = 1.86821291e-05, No Iterations 4
GAMG:  Solving for ILambda_145_0, Initial residual = 1, Final residual = 1.73362108e-05, No Iterations 4
GAMG:  Solving for ILambda_146_0, Initial residual = 1, Final residual = 1.43826899e-05, No Iterations 4
GAMG:  Solving for ILambda_147_0, Initial residual = 1, Final residual = 9.23634083e-05, No Iterations 3
GAMG:  Solving for ILambda_148_0, Initial residual = 1, Final residual = 9.03499331e-05, No Iterations 3
GAMG:  Solving for ILambda_149_0, Initial residual = 1, Final residual = 1.67133236e-05, No Iterations 4
GAMG:  Solving for ILambda_150_0, Initial residual = 1, Final residual = 1.83521121e-05, No Iterations 4
GAMG:  Solving for ILambda_151_0, Initial residual = 1, Final residual = 1.92949629e-05, No Iterations 4
GAMG:  Solving for ILambda_152_0, Initial residual = 1, Final residual = 2.8903499e-05, No Iterations 4
GAMG:  Solving for ILambda_153_0, Initial residual = 1, Final residual = 3.67751815e-05, No Iterations 4
GAMG:  Solving for ILambda_154_0, Initial residual = 1, Final residual = 3.82149957e-05, No Iterations 4
GAMG:  Solving for ILambda_155_0, Initial residual = 1, Final residual = 5.65351016e-05, No Iterations 4
GAMG:  Solving for ILambda_156_0, Initial residual = 1, Final residual = 5.47422949e-05, No Iterations 4
GAMG:  Solving for ILambda_157_0, Initial residual = 1, Final residual = 3.27351023e-05, No Iterations 4
GAMG:  Solving for ILambda_158_0, Initial residual = 1, Final residual = 3.10079989e-05, No Iterations 4
GAMG:  Solving for ILambda_159_0, Initial residual = 1, Final residual = 2.5687152e-05, No Iterations 4
GAMG:  Solving for ILambda_160_0, Initial residual = 1, Final residual = 1.78112041e-05, No Iterations 4
GAMG:  Solving for ILambda_161_0, Initial residual = 1, Final residual = 1.77126136e-05, No Iterations 4
GAMG:  Solving for ILambda_162_0, Initial residual = 1, Final residual = 1.75846529e-05, No Iterations 4
GAMG:  Solving for ILambda_163_0, Initial residual = 1, Final residual = 9.26774412e-05, No Iterations 3
GAMG:  Solving for ILambda_164_0, Initial residual = 1, Final residual = 8.96747595e-05, No Iterations 3
GAMG:  Solving for ILambda_165_0, Initial residual = 1, Final residual = 1.3063163e-05, No Iterations 4
GAMG:  Solving for ILambda_166_0, Initial residual = 1, Final residual = 1.5726379e-05, No Iterations 4
GAMG:  Solving for ILambda_167_0, Initial residual = 1, Final residual = 1.69169651e-05, No Iterations 4
GAMG:  Solving for ILambda_168_0, Initial residual = 1, Final residual = 1.85625852e-05, No Iterations 4
GAMG:  Solving for ILambda_169_0, Initial residual = 1, Final residual = 1.28745038e-05, No Iterations 4
GAMG:  Solving for ILambda_170_0, Initial residual = 1, Final residual = 9.54550511e-05, No Iterations 3
GAMG:  Solving for ILambda_171_0, Initial residual = 1, Final residual = 8.09665932e-05, No Iterations 3
GAMG:  Solving for ILambda_172_0, Initial residual = 1, Final residual = 8.56107178e-05, No Iterations 3
GAMG:  Solving for ILambda_173_0, Initial residual = 1, Final residual = 2.4382589e-05, No Iterations 4
GAMG:  Solving for ILambda_174_0, Initial residual = 1, Final residual = 2.28588575e-05, No Iterations 4
GAMG:  Solving for ILambda_175_0, Initial residual = 1, Final residual = 1.35905901e-05, No Iterations 4
GAMG:  Solving for ILambda_176_0, Initial residual = 1, Final residual = 1.93357558e-05, No Iterations 4
GAMG:  Solving for ILambda_177_0, Initial residual = 1, Final residual = 2.65406361e-05, No Iterations 4
GAMG:  Solving for ILambda_178_0, Initial residual = 1, Final residual = 3.12610984e-05, No Iterations 4
GAMG:  Solving for ILambda_179_0, Initial residual = 1, Final residual = 6.47908259e-05, No Iterations 4
GAMG:  Solving for ILambda_180_0, Initial residual = 1, Final residual = 6.95854795e-05, No Iterations 4
GAMG:  Solving for ILambda_181_0, Initial residual = 1, Final residual = 2.76959752e-05, No Iterations 4
GAMG:  Solving for ILambda_182_0, Initial residual = 1, Final residual = 2.40189147e-05, No Iterations 4
GAMG:  Solving for ILambda_183_0, Initial residual = 1, Final residual = 1.90882974e-05, No Iterations 4
GAMG:  Solving for ILambda_184_0, Initial residual = 1, Final residual = 1.39434478e-05, No Iterations 4
GAMG:  Solving for ILambda_185_0, Initial residual = 1, Final residual = 2.31615555e-05, No Iterations 4
GAMG:  Solving for ILambda_186_0, Initial residual = 1, Final residual = 2.64560711e-05, No Iterations 4
GAMG:  Solving for ILambda_187_0, Initial residual = 1, Final residual = 8.65158596e-05, No Iterations 3
GAMG:  Solving for ILambda_188_0, Initial residual = 1, Final residual = 8.10828062e-05, No Iterations 3
GAMG:  Solving for ILambda_189_0, Initial residual = 1, Final residual = 8.80252688e-05, No Iterations 3
GAMG:  Solving for ILambda_190_0, Initial residual = 1, Final residual = 1.14833388e-05, No Iterations 4
GAMG:  Solving for ILambda_191_0, Initial residual = 1, Final residual = 1.74026978e-05, No Iterations 4
GAMG:  Solving for ILambda_192_0, Initial residual = 1, Final residual = 2.42148176e-05, No Iterations 4
GAMG:  Solving for ILambda_193_0, Initial residual = 1, Final residual = 1.44407056e-05, No Iterations 4
GAMG:  Solving for ILambda_194_0, Initial residual = 1, Final residual = 9.45100314e-05, No Iterations 3
GAMG:  Solving for ILambda_195_0, Initial residual = 1, Final residual = 8.89780814e-05, No Iterations 3
GAMG:  Solving for ILambda_196_0, Initial residual = 1, Final residual = 1.69061216e-05, No Iterations 4
GAMG:  Solving for ILambda_197_0, Initial residual = 1, Final residual = 4.85109019e-05, No Iterations 4
GAMG:  Solving for ILambda_198_0, Initial residual = 1, Final residual = 4.43306744e-05, No Iterations 4
GAMG:  Solving for ILambda_199_0, Initial residual = 1, Final residual = 2.27408963e-05, No Iterations 4
GAMG:  Solving for ILambda_200_0, Initial residual = 1, Final residual = 2.08072686e-05, No Iterations 4
GAMG:  Solving for ILambda_201_0, Initial residual = 1, Final residual = 2.67593404e-05, No Iterations 4
GAMG:  Solving for ILambda_202_0, Initial residual = 1, Final residual = 3.58950585e-05, No Iterations 4
GAMG:  Solving for ILambda_203_0, Initial residual = 1, Final residual = 8.34155494e-05, No Iterations 4
GAMG:  Solving for ILambda_204_0, Initial residual = 1, Final residual = 8.95273361e-05, No Iterations 4
GAMG:  Solving for ILambda_205_0, Initial residual = 1, Final residual = 3.58755777e-05, No Iterations 4
GAMG:  Solving for ILambda_206_0, Initial residual = 1, Final residual = 2.78597184e-05, No Iterations 4
GAMG:  Solving for ILambda_207_0, Initial residual = 1, Final residual = 2.36142979e-05, No Iterations 4
GAMG:  Solving for ILambda_208_0, Initial residual = 1, Final residual = 2.23876617e-05, No Iterations 4
GAMG:  Solving for ILambda_209_0, Initial residual = 1, Final residual = 4.64320842e-05, No Iterations 4
GAMG:  Solving for ILambda_210_0, Initial residual = 1, Final residual = 4.77104245e-05, No Iterations 4
GAMG:  Solving for ILambda_211_0, Initial residual = 1, Final residual = 1.73575293e-05, No Iterations 4
GAMG:  Solving for ILambda_212_0, Initial residual = 1, Final residual = 8.45105144e-05, No Iterations 3
GAMG:  Solving for ILambda_213_0, Initial residual = 1, Final residual = 8.91406123e-05, No Iterations 3
GAMG:  Solving for ILambda_214_0, Initial residual = 1, Final residual = 9.92667903e-05, No Iterations 3
GAMG:  Solving for ILambda_215_0, Initial residual = 1, Final residual = 2.32872259e-05, No Iterations 4
GAMG:  Solving for ILambda_216_0, Initial residual = 1, Final residual = 3.76428366e-05, No Iterations 4
GAMG:  Solving for ILambda_217_0, Initial residual = 1, Final residual = 2.46605536e-05, No Iterations 4
GAMG:  Solving for ILambda_218_0, Initial residual = 1, Final residual = 2.21169816e-05, No Iterations 4
GAMG:  Solving for ILambda_219_0, Initial residual = 1, Final residual = 2.46172544e-05, No Iterations 4
GAMG:  Solving for ILambda_220_0, Initial residual = 1, Final residual = 3.42065384e-05, No Iterations 4
GAMG:  Solving for ILambda_221_0, Initial residual = 1, Final residual = 6.24605892e-05, No Iterations 4
GAMG:  Solving for ILambda_222_0, Initial residual = 1, Final residual = 7.59887387e-05, No Iterations 4
GAMG:  Solving for ILambda_223_0, Initial residual = 1, Final residual = 4.85492379e-05, No Iterations 4
GAMG:  Solving for ILambda_224_0, Initial residual = 1, Final residual = 3.84177096e-05, No Iterations 4
GAMG:  Solving for ILambda_225_0, Initial residual = 1, Final residual = 4.0544848e-05, No Iterations 4
GAMG:  Solving for ILambda_226_0, Initial residual = 1, Final residual = 5.09852435e-05, No Iterations 4
GAMG:  Solving for ILambda_227_0, Initial residual = 1, Final residual = 8.73498764e-05, No Iterations 4
GAMG:  Solving for ILambda_228_0, Initial residual = 1, Final residual = 8.0572823e-05, No Iterations 4
GAMG:  Solving for ILambda_229_0, Initial residual = 1, Final residual = 4.85198572e-05, No Iterations 4
GAMG:  Solving for ILambda_230_0, Initial residual = 1, Final residual = 3.86971264e-05, No Iterations 4
GAMG:  Solving for ILambda_231_0, Initial residual = 1, Final residual = 3.71217717e-05, No Iterations 4
GAMG:  Solving for ILambda_232_0, Initial residual = 1, Final residual = 5.01273096e-05, No Iterations 4
GAMG:  Solving for ILambda_233_0, Initial residual = 1, Final residual = 7.42325266e-05, No Iterations 4
GAMG:  Solving for ILambda_234_0, Initial residual = 1, Final residual = 6.31146441e-05, No Iterations 4
GAMG:  Solving for ILambda_235_0, Initial residual = 1, Final residual = 3.50784559e-05, No Iterations 4
GAMG:  Solving for ILambda_236_0, Initial residual = 1, Final residual = 2.61504093e-05, No Iterations 4
GAMG:  Solving for ILambda_237_0, Initial residual = 1, Final residual = 2.27532929e-05, No Iterations 4
GAMG:  Solving for ILambda_238_0, Initial residual = 1, Final residual = 2.55585904e-05, No Iterations 4
GAMG:  Solving for ILambda_239_0, Initial residual = 1, Final residual = 3.65536905e-05, No Iterations 4
Radiation solver iter: 1
GAMG:  Solving for ILambda_0_0, Initial residual = 0.0502406285, Final residual = 3.77980442e-05, No Iterations 5
GAMG:  Solving for ILambda_1_0, Initial residual = 0.0516372615, Final residual = 8.18306109e-05, No Iterations 4
GAMG:  Solving for ILambda_2_0, Initial residual = 0.0524513748, Final residual = 6.14056788e-05, No Iterations 4
GAMG:  Solving for ILambda_3_0, Initial residual = 0.0530345274, Final residual = 5.76842573e-05, No Iterations 4
GAMG:  Solving for ILambda_4_0, Initial residual = 0.0532147676, Final residual = 6.20714409e-05, No Iterations 4
GAMG:  Solving for ILambda_5_0, Initial residual = 0.0530563146, Final residual = 7.91702852e-05, No Iterations 4
GAMG:  Solving for ILambda_6_0, Initial residual = 0.0541180491, Final residual = 7.4634553e-05, No Iterations 4
GAMG:  Solving for ILambda_7_0, Initial residual = 0.0576349507, Final residual = 4.55997944e-05, No Iterations 4
GAMG:  Solving for ILambda_8_0, Initial residual = 0.0613628923, Final residual = 3.61971622e-05, No Iterations 4
GAMG:  Solving for ILambda_9_0, Initial residual = 0.064071697, Final residual = 3.26986648e-05, No Iterations 4
GAMG:  Solving for ILambda_10_0, Initial residual = 0.0642738323, Final residual = 4.65361085e-05, No Iterations 4
GAMG:  Solving for ILambda_11_0, Initial residual = 0.0611306002, Final residual = 8.66496887e-05, No Iterations 4
GAMG:  Solving for ILambda_12_0, Initial residual = 0.0600062014, Final residual = 7.98621618e-05, No Iterations 4
GAMG:  Solving for ILambda_13_0, Initial residual = 0.0646279799, Final residual = 4.73129743e-05, No Iterations 4
GAMG:  Solving for ILambda_14_0, Initial residual = 0.0646951117, Final residual = 3.7029798e-05, No Iterations 4
GAMG:  Solving for ILambda_15_0, Initial residual = 0.0619017874, Final residual = 3.67024932e-05, No Iterations 4
GAMG:  Solving for ILambda_16_0, Initial residual = 0.0580608844, Final residual = 4.53822371e-05, No Iterations 4
GAMG:  Solving for ILambda_17_0, Initial residual = 0.0543391585, Final residual = 8.94529839e-05, No Iterations 4
GAMG:  Solving for ILambda_18_0, Initial residual = 0.0534112231, Final residual = 8.43315673e-05, No Iterations 4
GAMG:  Solving for ILambda_19_0, Initial residual = 0.053414378, Final residual = 5.85055494e-05, No Iterations 4
GAMG:  Solving for ILambda_20_0, Initial residual = 0.0532316756, Final residual = 6.04568305e-05, No Iterations 4
GAMG:  Solving for ILambda_21_0, Initial residual = 0.0525819337, Final residual = 6.4557013e-05, No Iterations 4
GAMG:  Solving for ILambda_22_0, Initial residual = 0.0515418245, Final residual = 8.2317571e-05, No Iterations 4
GAMG:  Solving for ILambda_23_0, Initial residual = 0.0497375679, Final residual = 3.73251012e-05, No Iterations 5
GAMG:  Solving for ILambda_24_0, Initial residual = 0.0651219229, Final residual = 4.09621454e-05, No Iterations 5
GAMG:  Solving for ILambda_25_0, Initial residual = 0.0636085538, Final residual = 9.244355e-05, No Iterations 4
GAMG:  Solving for ILambda_26_0, Initial residual = 0.0611636882, Final residual = 6.82116654e-05, No Iterations 4
GAMG:  Solving for ILambda_27_0, Initial residual = 0.0583746424, Final residual = 4.05065763e-05, No Iterations 4
GAMG:  Solving for ILambda_28_0, Initial residual = 0.0549409272, Final residual = 2.64908376e-05, No Iterations 4
GAMG:  Solving for ILambda_29_0, Initial residual = 0.0519815488, Final residual = 3.57019676e-05, No Iterations 4
GAMG:  Solving for ILambda_30_0, Initial residual = 0.0544617882, Final residual = 3.55310707e-05, No Iterations 4
GAMG:  Solving for ILambda_31_0, Initial residual = 0.0621637752, Final residual = 1.86769164e-05, No Iterations 4
GAMG:  Solving for ILambda_32_0, Initial residual = 0.0708875969, Final residual = 1.54011286e-05, No Iterations 4
GAMG:  Solving for ILambda_33_0, Initial residual = 0.078134917, Final residual = 1.7483183e-05, No Iterations 4
GAMG:  Solving for ILambda_34_0, Initial residual = 0.0831103194, Final residual = 2.67977226e-05, No Iterations 4
GAMG:  Solving for ILambda_35_0, Initial residual = 0.0801859433, Final residual = 8.0675151e-05, No Iterations 4
GAMG:  Solving for ILambda_36_0, Initial residual = 0.0801052655, Final residual = 8.65287513e-05, No Iterations 4
GAMG:  Solving for ILambda_37_0, Initial residual = 0.0839547249, Final residual = 3.06297739e-05, No Iterations 4
GAMG:  Solving for ILambda_38_0, Initial residual = 0.0790284115, Final residual = 2.26192575e-05, No Iterations 4
GAMG:  Solving for ILambda_39_0, Initial residual = 0.0718370133, Final residual = 2.04350718e-05, No Iterations 4
GAMG:  Solving for ILambda_40_0, Initial residual = 0.0632585318, Final residual = 2.04797186e-05, No Iterations 4
GAMG:  Solving for ILambda_41_0, Initial residual = 0.055255931, Final residual = 4.43587662e-05, No Iterations 4
GAMG:  Solving for ILambda_42_0, Initial residual = 0.0524638514, Final residual = 4.63466284e-05, No Iterations 4
GAMG:  Solving for ILambda_43_0, Initial residual = 0.0552741379, Final residual = 3.21053322e-05, No Iterations 4
GAMG:  Solving for ILambda_44_0, Initial residual = 0.0583186836, Final residual = 4.91535703e-05, No Iterations 4
GAMG:  Solving for ILambda_45_0, Initial residual = 0.0607618309, Final residual = 7.86251493e-05, No Iterations 4
GAMG:  Solving for ILambda_46_0, Initial residual = 0.0633745459, Final residual = 2.24872872e-05, No Iterations 5
GAMG:  Solving for ILambda_47_0, Initial residual = 0.0646805282, Final residual = 4.00893162e-05, No Iterations 5
GAMG:  Solving for ILambda_48_0, Initial residual = 0.0756816443, Final residual = 2.58811996e-05, No Iterations 5
GAMG:  Solving for ILambda_49_0, Initial residual = 0.0719909324, Final residual = 5.95125614e-05, No Iterations 4
GAMG:  Solving for ILambda_50_0, Initial residual = 0.0657431625, Final residual = 3.83682934e-05, No Iterations 4
GAMG:  Solving for ILambda_51_0, Initial residual = 0.0585228107, Final residual = 3.74576588e-05, No Iterations 4
GAMG:  Solving for ILambda_52_0, Initial residual = 0.0521425812, Final residual = 2.70881877e-05, No Iterations 4
GAMG:  Solving for ILambda_53_0, Initial residual = 0.0464869361, Final residual = 2.30804392e-05, No Iterations 4
GAMG:  Solving for ILambda_54_0, Initial residual = 0.0494610669, Final residual = 2.27455073e-05, No Iterations 4
GAMG:  Solving for ILambda_55_0, Initial residual = 0.0609935625, Final residual = 1.45546661e-05, No Iterations 4
GAMG:  Solving for ILambda_56_0, Initial residual = 0.0719266127, Final residual = 1.39367555e-05, No Iterations 4
GAMG:  Solving for ILambda_57_0, Initial residual = 0.082535487, Final residual = 1.795047e-05, No Iterations 4
GAMG:  Solving for ILambda_58_0, Initial residual = 0.0908702515, Final residual = 2.00492576e-05, No Iterations 4
GAMG:  Solving for ILambda_59_0, Initial residual = 0.0883903309, Final residual = 5.11540696e-05, No Iterations 4
GAMG:  Solving for ILambda_60_0, Initial residual = 0.0885375475, Final residual = 4.37518022e-05, No Iterations 4
GAMG:  Solving for ILambda_61_0, Initial residual = 0.0916342068, Final residual = 2.77234688e-05, No Iterations 4
GAMG:  Solving for ILambda_62_0, Initial residual = 0.0837871286, Final residual = 2.25243308e-05, No Iterations 4
GAMG:  Solving for ILambda_63_0, Initial residual = 0.0732951284, Final residual = 1.73197275e-05, No Iterations 4
GAMG:  Solving for ILambda_64_0, Initial residual = 0.0618884482, Final residual = 1.6693907e-05, No Iterations 4
GAMG:  Solving for ILambda_65_0, Initial residual = 0.0499438244, Final residual = 2.65489818e-05, No Iterations 4
GAMG:  Solving for ILambda_66_0, Initial residual = 0.0470751297, Final residual = 2.73497743e-05, No Iterations 4
GAMG:  Solving for ILambda_67_0, Initial residual = 0.0523204582, Final residual = 3.23761203e-05, No Iterations 4
GAMG:  Solving for ILambda_68_0, Initial residual = 0.0581257455, Final residual = 4.51267654e-05, No Iterations 4
GAMG:  Solving for ILambda_69_0, Initial residual = 0.0650663609, Final residual = 4.91120339e-05, No Iterations 4
GAMG:  Solving for ILambda_70_0, Initial residual = 0.0711264004, Final residual = 6.50868631e-05, No Iterations 4
GAMG:  Solving for ILambda_71_0, Initial residual = 0.0755476465, Final residual = 2.64591485e-05, No Iterations 5
GAMG:  Solving for ILambda_72_0, Initial residual = 0.0799173693, Final residual = 6.87800412e-05, No Iterations 4
GAMG:  Solving for ILambda_73_0, Initial residual = 0.0762700446, Final residual = 3.34191074e-05, No Iterations 4
GAMG:  Solving for ILambda_74_0, Initial residual = 0.0690266267, Final residual = 3.25025066e-05, No Iterations 4
GAMG:  Solving for ILambda_75_0, Initial residual = 0.0586555148, Final residual = 3.17980866e-05, No Iterations 4
GAMG:  Solving for ILambda_76_0, Initial residual = 0.0494405892, Final residual = 2.38292915e-05, No Iterations 4
GAMG:  Solving for ILambda_77_0, Initial residual = 0.0401963993, Final residual = 1.64627981e-05, No Iterations 4
GAMG:  Solving for ILambda_78_0, Initial residual = 0.0433984988, Final residual = 9.96819731e-05, No Iterations 3
GAMG:  Solving for ILambda_79_0, Initial residual = 0.0571633773, Final residual = 9.07515818e-05, No Iterations 3
GAMG:  Solving for ILambda_80_0, Initial residual = 0.0695026184, Final residual = 1.3488954e-05, No Iterations 4
GAMG:  Solving for ILambda_81_0, Initial residual = 0.0814491599, Final residual = 2.04548387e-05, No Iterations 4
GAMG:  Solving for ILambda_82_0, Initial residual = 0.0908192302, Final residual = 2.13727565e-05, No Iterations 4
GAMG:  Solving for ILambda_83_0, Initial residual = 0.0875227363, Final residual = 2.76229264e-05, No Iterations 4
GAMG:  Solving for ILambda_84_0, Initial residual = 0.0880406647, Final residual = 2.34301307e-05, No Iterations 4
GAMG:  Solving for ILambda_85_0, Initial residual = 0.0918946795, Final residual = 2.24202467e-05, No Iterations 4
GAMG:  Solving for ILambda_86_0, Initial residual = 0.0826881292, Final residual = 1.78344122e-05, No Iterations 4
GAMG:  Solving for ILambda_87_0, Initial residual = 0.0705217853, Final residual = 1.58387542e-05, No Iterations 4
GAMG:  Solving for ILambda_88_0, Initial residual = 0.0577176143, Final residual = 1.34147522e-05, No Iterations 4
GAMG:  Solving for ILambda_89_0, Initial residual = 0.0435580444, Final residual = 1.80795617e-05, No Iterations 4
GAMG:  Solving for ILambda_90_0, Initial residual = 0.0407266622, Final residual = 2.17221438e-05, No Iterations 4
GAMG:  Solving for ILambda_91_0, Initial residual = 0.0494999375, Final residual = 2.79199641e-05, No Iterations 4
GAMG:  Solving for ILambda_92_0, Initial residual = 0.0583224113, Final residual = 4.1195782e-05, No Iterations 4
GAMG:  Solving for ILambda_93_0, Initial residual = 0.0681330568, Final residual = 4.3085547e-05, No Iterations 4
GAMG:  Solving for ILambda_94_0, Initial residual = 0.0755975106, Final residual = 4.06017011e-05, No Iterations 4
GAMG:  Solving for ILambda_95_0, Initial residual = 0.0807050108, Final residual = 7.91496705e-05, No Iterations 4
GAMG:  Solving for ILambda_96_0, Initial residual = 0.0823199232, Final residual = 4.75372262e-05, No Iterations 4
GAMG:  Solving for ILambda_97_0, Initial residual = 0.0805284867, Final residual = 3.20026264e-05, No Iterations 4
GAMG:  Solving for ILambda_98_0, Initial residual = 0.0716140385, Final residual = 3.12087278e-05, No Iterations 4
GAMG:  Solving for ILambda_99_0, Initial residual = 0.0592792784, Final residual = 3.9046476e-05, No Iterations 4
GAMG:  Solving for ILambda_100_0, Initial residual = 0.0470991327, Final residual = 3.17166381e-05, No Iterations 4
GAMG:  Solving for ILambda_101_0, Initial residual = 0.0330000822, Final residual = 2.45189935e-05, No Iterations 4
GAMG:  Solving for ILambda_102_0, Initial residual = 0.0352453671, Final residual = 2.29617393e-05, No Iterations 4
GAMG:  Solving for ILambda_103_0, Initial residual = 0.0509771886, Final residual = 2.56324919e-05, No Iterations 4
GAMG:  Solving for ILambda_104_0, Initial residual = 0.0646959614, Final residual = 3.33882973e-05, No Iterations 4
GAMG:  Solving for ILambda_105_0, Initial residual = 0.0773679281, Final residual = 3.61371943e-05, No Iterations 4
GAMG:  Solving for ILambda_106_0, Initial residual = 0.0868501735, Final residual = 3.75352795e-05, No Iterations 4
GAMG:  Solving for ILambda_107_0, Initial residual = 0.0810426145, Final residual = 2.61390402e-05, No Iterations 4
GAMG:  Solving for ILambda_108_0, Initial residual = 0.0816587586, Final residual = 2.49302766e-05, No Iterations 4
GAMG:  Solving for ILambda_109_0, Initial residual = 0.0877977063, Final residual = 2.47397679e-05, No Iterations 4
GAMG:  Solving for ILambda_110_0, Initial residual = 0.0781383376, Final residual = 2.61270999e-05, No Iterations 4
GAMG:  Solving for ILambda_111_0, Initial residual = 0.0650887492, Final residual = 3.02957326e-05, No Iterations 4
GAMG:  Solving for ILambda_112_0, Initial residual = 0.0512309461, Final residual = 2.75987767e-05, No Iterations 4
GAMG:  Solving for ILambda_113_0, Initial residual = 0.0352545215, Final residual = 2.83524887e-05, No Iterations 4
GAMG:  Solving for ILambda_114_0, Initial residual = 0.0332276268, Final residual = 3.52046211e-05, No Iterations 4
GAMG:  Solving for ILambda_115_0, Initial residual = 0.0470840333, Final residual = 3.98649777e-05, No Iterations 4
GAMG:  Solving for ILambda_116_0, Initial residual = 0.0591773068, Final residual = 5.39984038e-05, No Iterations 4
GAMG:  Solving for ILambda_117_0, Initial residual = 0.0710160755, Final residual = 5.94931319e-05, No Iterations 4
GAMG:  Solving for ILambda_118_0, Initial residual = 0.0809358585, Final residual = 6.32140389e-05, No Iterations 4
GAMG:  Solving for ILambda_119_0, Initial residual = 0.0837447634, Final residual = 5.70958717e-05, No Iterations 4
GAMG:  Solving for ILambda_120_0, Initial residual = 0.0782447289, Final residual = 2.5037405e-05, No Iterations 4
GAMG:  Solving for ILambda_121_0, Initial residual = 0.08044396, Final residual = 3.38712603e-05, No Iterations 4
GAMG:  Solving for ILambda_122_0, Initial residual = 0.0712330333, Final residual = 2.91729905e-05, No Iterations 4
GAMG:  Solving for ILambda_123_0, Initial residual = 0.0594303219, Final residual = 3.06956865e-05, No Iterations 4
GAMG:  Solving for ILambda_124_0, Initial residual = 0.0463612758, Final residual = 2.80972745e-05, No Iterations 4
GAMG:  Solving for ILambda_125_0, Initial residual = 0.0312943959, Final residual = 1.9105032e-05, No Iterations 4
GAMG:  Solving for ILambda_126_0, Initial residual = 0.0301073679, Final residual = 2.35630177e-05, No Iterations 4
GAMG:  Solving for ILambda_127_0, Initial residual = 0.0423097852, Final residual = 3.29560825e-05, No Iterations 4
GAMG:  Solving for ILambda_128_0, Initial residual = 0.0533074756, Final residual = 5.22268982e-05, No Iterations 4
GAMG:  Solving for ILambda_129_0, Initial residual = 0.0643401198, Final residual = 5.54051852e-05, No Iterations 4
GAMG:  Solving for ILambda_130_0, Initial residual = 0.0728740306, Final residual = 5.61226326e-05, No Iterations 4
GAMG:  Solving for ILambda_131_0, Initial residual = 0.069118208, Final residual = 5.90702469e-05, No Iterations 4
GAMG:  Solving for ILambda_132_0, Initial residual = 0.068946554, Final residual = 5.03435259e-05, No Iterations 4
GAMG:  Solving for ILambda_133_0, Initial residual = 0.0734087132, Final residual = 4.14262685e-05, No Iterations 4
GAMG:  Solving for ILambda_134_0, Initial residual = 0.0646875972, Final residual = 4.71411552e-05, No Iterations 4
GAMG:  Solving for ILambda_135_0, Initial residual = 0.0535289916, Final residual = 4.69503698e-05, No Iterations 4
GAMG:  Solving for ILambda_136_0, Initial residual = 0.0426274797, Final residual = 3.31985003e-05, No Iterations 4
GAMG:  Solving for ILambda_137_0, Initial residual = 0.0302524654, Final residual = 2.98124781e-05, No Iterations 4
GAMG:  Solving for ILambda_138_0, Initial residual = 0.0316336726, Final residual = 2.50332998e-05, No Iterations 4
GAMG:  Solving for ILambda_139_0, Initial residual = 0.0466027278, Final residual = 3.31742066e-05, No Iterations 4
GAMG:  Solving for ILambda_140_0, Initial residual = 0.0594126372, Final residual = 3.806615e-05, No Iterations 4
GAMG:  Solving for ILambda_141_0, Initial residual = 0.0711929818, Final residual = 4.90985353e-05, No Iterations 4
GAMG:  Solving for ILambda_142_0, Initial residual = 0.0811069279, Final residual = 4.79515057e-05, No Iterations 4
GAMG:  Solving for ILambda_143_0, Initial residual = 0.0792890022, Final residual = 3.40026337e-05, No Iterations 4
GAMG:  Solving for ILambda_144_0, Initial residual = 0.0729299606, Final residual = 2.44666589e-05, No Iterations 4
GAMG:  Solving for ILambda_145_0, Initial residual = 0.0757159402, Final residual = 1.98899183e-05, No Iterations 4
GAMG:  Solving for ILambda_146_0, Initial residual = 0.0674230007, Final residual = 1.67073452e-05, No Iterations 4
GAMG:  Solving for ILambda_147_0, Initial residual = 0.0578252884, Final residual = 9.75114251e-05, No Iterations 3
GAMG:  Solving for ILambda_148_0, Initial residual = 0.0473751162, Final residual = 9.8351853e-05, No Iterations 3
GAMG:  Solving for ILambda_149_0, Initial residual = 0.0354133903, Final residual = 1.54543802e-05, No Iterations 4
GAMG:  Solving for ILambda_150_0, Initial residual = 0.0335773245, Final residual = 1.62332702e-05, No Iterations 4
GAMG:  Solving for ILambda_151_0, Initial residual = 0.040392954, Final residual = 2.07509128e-05, No Iterations 4
GAMG:  Solving for ILambda_152_0, Initial residual = 0.0459957082, Final residual = 3.02543716e-05, No Iterations 4
GAMG:  Solving for ILambda_153_0, Initial residual = 0.0522948935, Final residual = 4.36755219e-05, No Iterations 4
GAMG:  Solving for ILambda_154_0, Initial residual = 0.0582794607, Final residual = 4.94326811e-05, No Iterations 4
GAMG:  Solving for ILambda_155_0, Initial residual = 0.0581941495, Final residual = 7.00161142e-05, No Iterations 4
GAMG:  Solving for ILambda_156_0, Initial residual = 0.0581122036, Final residual = 6.94273065e-05, No Iterations 4
GAMG:  Solving for ILambda_157_0, Initial residual = 0.0586385569, Final residual = 4.46825525e-05, No Iterations 4
GAMG:  Solving for ILambda_158_0, Initial residual = 0.052790301, Final residual = 3.78474737e-05, No Iterations 4
GAMG:  Solving for ILambda_159_0, Initial residual = 0.0464510406, Final residual = 2.86820268e-05, No Iterations 4
GAMG:  Solving for ILambda_160_0, Initial residual = 0.0408435374, Final residual = 1.70119107e-05, No Iterations 4
GAMG:  Solving for ILambda_161_0, Initial residual = 0.0339168862, Final residual = 1.65678447e-05, No Iterations 4
GAMG:  Solving for ILambda_162_0, Initial residual = 0.035739421, Final residual = 1.72058353e-05, No Iterations 4
GAMG:  Solving for ILambda_163_0, Initial residual = 0.0473898934, Final residual = 1.54728992e-05, No Iterations 4
GAMG:  Solving for ILambda_164_0, Initial residual = 0.0577483839, Final residual = 1.62446041e-05, No Iterations 4
GAMG:  Solving for ILambda_165_0, Initial residual = 0.0676183889, Final residual = 1.73675427e-05, No Iterations 4
GAMG:  Solving for ILambda_166_0, Initial residual = 0.0763473574, Final residual = 2.36074854e-05, No Iterations 4
GAMG:  Solving for ILambda_167_0, Initial residual = 0.0735402111, Final residual = 2.24657464e-05, No Iterations 4
GAMG:  Solving for ILambda_168_0, Initial residual = 0.06459693, Final residual = 2.85953686e-05, No Iterations 4
GAMG:  Solving for ILambda_169_0, Initial residual = 0.0677243154, Final residual = 1.84217589e-05, No Iterations 4
GAMG:  Solving for ILambda_170_0, Initial residual = 0.0617575031, Final residual = 1.47871269e-05, No Iterations 4
GAMG:  Solving for ILambda_171_0, Initial residual = 0.0541392201, Final residual = 1.36534352e-05, No Iterations 4
GAMG:  Solving for ILambda_172_0, Initial residual = 0.0459491913, Final residual = 1.71062879e-05, No Iterations 4
GAMG:  Solving for ILambda_173_0, Initial residual = 0.0367719771, Final residual = 2.52850866e-05, No Iterations 4
GAMG:  Solving for ILambda_174_0, Initial residual = 0.0347730974, Final residual = 2.48308908e-05, No Iterations 4
GAMG:  Solving for ILambda_175_0, Initial residual = 0.0392238308, Final residual = 1.6216188e-05, No Iterations 4
GAMG:  Solving for ILambda_176_0, Initial residual = 0.0415784487, Final residual = 2.2420319e-05, No Iterations 4
GAMG:  Solving for ILambda_177_0, Initial residual = 0.0436164291, Final residual = 3.32422225e-05, No Iterations 4
GAMG:  Solving for ILambda_178_0, Initial residual = 0.0460868951, Final residual = 4.4080761e-05, No Iterations 4
GAMG:  Solving for ILambda_179_0, Initial residual = 0.046573533, Final residual = 7.85761695e-05, No Iterations 4
GAMG:  Solving for ILambda_180_0, Initial residual = 0.0468610083, Final residual = 8.4117732e-05, No Iterations 4
GAMG:  Solving for ILambda_181_0, Initial residual = 0.0465741834, Final residual = 3.97436814e-05, No Iterations 4
GAMG:  Solving for ILambda_182_0, Initial residual = 0.0439720409, Final residual = 3.04933588e-05, No Iterations 4
GAMG:  Solving for ILambda_183_0, Initial residual = 0.0416777861, Final residual = 2.23413137e-05, No Iterations 4
GAMG:  Solving for ILambda_184_0, Initial residual = 0.0393074011, Final residual = 1.64120502e-05, No Iterations 4
GAMG:  Solving for ILambda_185_0, Initial residual = 0.0347559114, Final residual = 2.40551946e-05, No Iterations 4
GAMG:  Solving for ILambda_186_0, Initial residual = 0.0368884552, Final residual = 2.87880178e-05, No Iterations 4
GAMG:  Solving for ILambda_187_0, Initial residual = 0.0460413476, Final residual = 1.73391822e-05, No Iterations 4
GAMG:  Solving for ILambda_188_0, Initial residual = 0.0542054883, Final residual = 1.29206026e-05, No Iterations 4
GAMG:  Solving for ILambda_189_0, Initial residual = 0.0621175025, Final residual = 1.38848519e-05, No Iterations 4
GAMG:  Solving for ILambda_190_0, Initial residual = 0.0682437145, Final residual = 1.70604753e-05, No Iterations 4
GAMG:  Solving for ILambda_191_0, Initial residual = 0.0647609749, Final residual = 2.30679117e-05, No Iterations 4
GAMG:  Solving for ILambda_192_0, Initial residual = 0.0527165224, Final residual = 2.75324713e-05, No Iterations 4
GAMG:  Solving for ILambda_193_0, Initial residual = 0.0550055072, Final residual = 1.82724574e-05, No Iterations 4
GAMG:  Solving for ILambda_194_0, Initial residual = 0.0526462545, Final residual = 1.70427718e-05, No Iterations 4
GAMG:  Solving for ILambda_195_0, Initial residual = 0.0484070537, Final residual = 1.6190763e-05, No Iterations 4
GAMG:  Solving for ILambda_196_0, Initial residual = 0.0430722665, Final residual = 2.15590586e-05, No Iterations 4
GAMG:  Solving for ILambda_197_0, Initial residual = 0.0371048557, Final residual = 5.10385045e-05, No Iterations 4
GAMG:  Solving for ILambda_198_0, Initial residual = 0.035297884, Final residual = 4.82386982e-05, No Iterations 4
GAMG:  Solving for ILambda_199_0, Initial residual = 0.0369228675, Final residual = 2.48198378e-05, No Iterations 4
GAMG:  Solving for ILambda_200_0, Initial residual = 0.037663011, Final residual = 2.84424982e-05, No Iterations 4
GAMG:  Solving for ILambda_201_0, Initial residual = 0.0375959351, Final residual = 3.36688966e-05, No Iterations 4
GAMG:  Solving for ILambda_202_0, Initial residual = 0.0377569763, Final residual = 4.37327042e-05, No Iterations 4
GAMG:  Solving for ILambda_203_0, Initial residual = 0.0376321252, Final residual = 9.50300443e-05, No Iterations 4
GAMG:  Solving for ILambda_204_0, Initial residual = 0.0377332382, Final residual = 8.7471416e-05, No Iterations 4
GAMG:  Solving for ILambda_205_0, Initial residual = 0.0378873001, Final residual = 4.61186354e-05, No Iterations 4
GAMG:  Solving for ILambda_206_0, Initial residual = 0.0377483229, Final residual = 3.49952608e-05, No Iterations 4
GAMG:  Solving for ILambda_207_0, Initial residual = 0.0376292765, Final residual = 3.31715212e-05, No Iterations 4
GAMG:  Solving for ILambda_208_0, Initial residual = 0.0370730068, Final residual = 2.80570021e-05, No Iterations 4
GAMG:  Solving for ILambda_209_0, Initial residual = 0.0354650433, Final residual = 5.09781445e-05, No Iterations 4
GAMG:  Solving for ILambda_210_0, Initial residual = 0.0376398687, Final residual = 5.82757169e-05, No Iterations 4
GAMG:  Solving for ILambda_211_0, Initial residual = 0.0436100608, Final residual = 2.21235684e-05, No Iterations 4
GAMG:  Solving for ILambda_212_0, Initial residual = 0.0488080895, Final residual = 1.85153581e-05, No Iterations 4
GAMG:  Solving for ILambda_213_0, Initial residual = 0.0531047619, Final residual = 1.70783164e-05, No Iterations 4
GAMG:  Solving for ILambda_214_0, Initial residual = 0.055571453, Final residual = 1.92976456e-05, No Iterations 4
GAMG:  Solving for ILambda_215_0, Initial residual = 0.0528525126, Final residual = 2.81822755e-05, No Iterations 4
GAMG:  Solving for ILambda_216_0, Initial residual = 0.0378349929, Final residual = 4.83156491e-05, No Iterations 4
GAMG:  Solving for ILambda_217_0, Initial residual = 0.0388397082, Final residual = 3.19321819e-05, No Iterations 4
GAMG:  Solving for ILambda_218_0, Initial residual = 0.0391733133, Final residual = 3.12376402e-05, No Iterations 4
GAMG:  Solving for ILambda_219_0, Initial residual = 0.0384618482, Final residual = 3.37917309e-05, No Iterations 4
GAMG:  Solving for ILambda_220_0, Initial residual = 0.0368609473, Final residual = 3.81120693e-05, No Iterations 4
GAMG:  Solving for ILambda_221_0, Initial residual = 0.0349037825, Final residual = 7.71029478e-05, No Iterations 4
GAMG:  Solving for ILambda_222_0, Initial residual = 0.0331426928, Final residual = 8.32385855e-05, No Iterations 4
GAMG:  Solving for ILambda_223_0, Initial residual = 0.0325348648, Final residual = 5.43288021e-05, No Iterations 4
GAMG:  Solving for ILambda_224_0, Initial residual = 0.0321645696, Final residual = 5.24933291e-05, No Iterations 4
GAMG:  Solving for ILambda_225_0, Initial residual = 0.031666418, Final residual = 5.23612113e-05, No Iterations 4
GAMG:  Solving for ILambda_226_0, Initial residual = 0.030436475, Final residual = 5.94861748e-05, No Iterations 4
GAMG:  Solving for ILambda_227_0, Initial residual = 0.0298331207, Final residual = 3.05959666e-05, No Iterations 5
GAMG:  Solving for ILambda_228_0, Initial residual = 0.0300699664, Final residual = 3.34884945e-05, No Iterations 5
GAMG:  Solving for ILambda_229_0, Initial residual = 0.0308184557, Final residual = 5.93866757e-05, No Iterations 4
GAMG:  Solving for ILambda_230_0, Initial residual = 0.0321788041, Final residual = 4.73420653e-05, No Iterations 4
GAMG:  Solving for ILambda_231_0, Initial residual = 0.0328606381, Final residual = 4.5387579e-05, No Iterations 4
GAMG:  Solving for ILambda_232_0, Initial residual = 0.0331892253, Final residual = 5.59276924e-05, No Iterations 4
GAMG:  Solving for ILambda_233_0, Initial residual = 0.0338707147, Final residual = 8.78888213e-05, No Iterations 4
GAMG:  Solving for ILambda_234_0, Initial residual = 0.0353441568, Final residual = 7.29363946e-05, No Iterations 4
GAMG:  Solving for ILambda_235_0, Initial residual = 0.0373151067, Final residual = 4.29254765e-05, No Iterations 4
GAMG:  Solving for ILambda_236_0, Initial residual = 0.0389558706, Final residual = 3.38160933e-05, No Iterations 4
GAMG:  Solving for ILambda_237_0, Initial residual = 0.0396794103, Final residual = 3.01771504e-05, No Iterations 4
GAMG:  Solving for ILambda_238_0, Initial residual = 0.039054298, Final residual = 3.45008999e-05, No Iterations 4
GAMG:  Solving for ILambda_239_0, Initial residual = 0.0376870035, Final residual = 4.79852513e-05, No Iterations 4
Radiation solver iter: 2
GAMG:  Solving for ILambda_0_0, Initial residual = 0.0316292179, Final residual = 3.31416157e-05, No Iterations 4
GAMG:  Solving for ILambda_1_0, Initial residual = 0.0333405358, Final residual = 2.33264108e-05, No Iterations 4
GAMG:  Solving for ILambda_2_0, Initial residual = 0.0350717737, Final residual = 9.28709987e-05, No Iterations 3
GAMG:  Solving for ILambda_3_0, Initial residual = 0.0361022111, Final residual = 8.6565759e-05, No Iterations 3
GAMG:  Solving for ILambda_4_0, Initial residual = 0.0363979365, Final residual = 8.9899783e-05, No Iterations 3
GAMG:  Solving for ILambda_5_0, Initial residual = 0.0363845278, Final residual = 2.58570123e-05, No Iterations 4
GAMG:  Solving for ILambda_6_0, Initial residual = 0.0366346901, Final residual = 2.468742e-05, No Iterations 4
GAMG:  Solving for ILambda_7_0, Initial residual = 0.0379368772, Final residual = 8.21171261e-05, No Iterations 3
GAMG:  Solving for ILambda_8_0, Initial residual = 0.0402428319, Final residual = 7.31513677e-05, No Iterations 3
GAMG:  Solving for ILambda_9_0, Initial residual = 0.0403193152, Final residual = 6.8419175e-05, No Iterations 3
GAMG:  Solving for ILambda_10_0, Initial residual = 0.0382512446, Final residual = 8.30628976e-05, No Iterations 3
GAMG:  Solving for ILambda_11_0, Initial residual = 0.0335958544, Final residual = 2.31801808e-05, No Iterations 4
GAMG:  Solving for ILambda_12_0, Initial residual = 0.0337407837, Final residual = 2.21306748e-05, No Iterations 4
GAMG:  Solving for ILambda_13_0, Initial residual = 0.0380522338, Final residual = 8.50879283e-05, No Iterations 3
GAMG:  Solving for ILambda_14_0, Initial residual = 0.0409145726, Final residual = 7.34391157e-05, No Iterations 3
GAMG:  Solving for ILambda_15_0, Initial residual = 0.0406534626, Final residual = 7.92618537e-05, No Iterations 3
GAMG:  Solving for ILambda_16_0, Initial residual = 0.0385746565, Final residual = 9.36516766e-05, No Iterations 3
GAMG:  Solving for ILambda_17_0, Initial residual = 0.0369170889, Final residual = 2.89174447e-05, No Iterations 4
GAMG:  Solving for ILambda_18_0, Initial residual = 0.0367504491, Final residual = 2.81211839e-05, No Iterations 4
GAMG:  Solving for ILambda_19_0, Initial residual = 0.0367161604, Final residual = 1.80752341e-05, No Iterations 4
GAMG:  Solving for ILambda_20_0, Initial residual = 0.0363693178, Final residual = 9.52972177e-05, No Iterations 3
GAMG:  Solving for ILambda_21_0, Initial residual = 0.0351446224, Final residual = 9.5233588e-05, No Iterations 3
GAMG:  Solving for ILambda_22_0, Initial residual = 0.0330579529, Final residual = 2.36362861e-05, No Iterations 4
GAMG:  Solving for ILambda_23_0, Initial residual = 0.0313043412, Final residual = 3.14333884e-05, No Iterations 4
GAMG:  Solving for ILambda_24_0, Initial residual = 0.0445756126, Final residual = 4.72060969e-05, No Iterations 4
GAMG:  Solving for ILambda_25_0, Initial residual = 0.0452435824, Final residual = 3.26838073e-05, No Iterations 4
GAMG:  Solving for ILambda_26_0, Initial residual = 0.0442606406, Final residual = 2.36576135e-05, No Iterations 4
GAMG:  Solving for ILambda_27_0, Initial residual = 0.04290152, Final residual = 8.83204936e-05, No Iterations 3
GAMG:  Solving for ILambda_28_0, Initial residual = 0.0397784922, Final residual = 5.98824716e-05, No Iterations 3
GAMG:  Solving for ILambda_29_0, Initial residual = 0.0374294366, Final residual = 6.85178714e-05, No Iterations 3
GAMG:  Solving for ILambda_30_0, Initial residual = 0.03859233, Final residual = 6.88358691e-05, No Iterations 3
GAMG:  Solving for ILambda_31_0, Initial residual = 0.0438611244, Final residual = 5.09495149e-05, No Iterations 3
GAMG:  Solving for ILambda_32_0, Initial residual = 0.0501709249, Final residual = 4.71568133e-05, No Iterations 3
GAMG:  Solving for ILambda_33_0, Initial residual = 0.0538512133, Final residual = 5.34018514e-05, No Iterations 3
GAMG:  Solving for ILambda_34_0, Initial residual = 0.0544311631, Final residual = 6.83381098e-05, No Iterations 3
GAMG:  Solving for ILambda_35_0, Initial residual = 0.0474184891, Final residual = 1.98678978e-05, No Iterations 4
GAMG:  Solving for ILambda_36_0, Initial residual = 0.047204803, Final residual = 2.20642643e-05, No Iterations 4
GAMG:  Solving for ILambda_37_0, Initial residual = 0.0547621322, Final residual = 9.31829518e-05, No Iterations 3
GAMG:  Solving for ILambda_38_0, Initial residual = 0.0544594974, Final residual = 7.12578654e-05, No Iterations 3
GAMG:  Solving for ILambda_39_0, Initial residual = 0.0506280268, Final residual = 6.23850191e-05, No Iterations 3
GAMG:  Solving for ILambda_40_0, Initial residual = 0.0447582576, Final residual = 6.18855099e-05, No Iterations 3
GAMG:  Solving for ILambda_41_0, Initial residual = 0.0392031547, Final residual = 9.03881289e-05, No Iterations 3
GAMG:  Solving for ILambda_42_0, Initial residual = 0.0379695806, Final residual = 9.15130801e-05, No Iterations 3
GAMG:  Solving for ILambda_43_0, Initial residual = 0.0400518201, Final residual = 7.88963344e-05, No Iterations 3
GAMG:  Solving for ILambda_44_0, Initial residual = 0.0429206336, Final residual = 1.81494612e-05, No Iterations 4
GAMG:  Solving for ILambda_45_0, Initial residual = 0.0440484045, Final residual = 2.76474262e-05, No Iterations 4
GAMG:  Solving for ILambda_46_0, Initial residual = 0.0450868931, Final residual = 3.48075272e-05, No Iterations 4
GAMG:  Solving for ILambda_47_0, Initial residual = 0.0442812893, Final residual = 4.83144916e-05, No Iterations 4
GAMG:  Solving for ILambda_48_0, Initial residual = 0.0506456303, Final residual = 3.86304887e-05, No Iterations 4
GAMG:  Solving for ILambda_49_0, Initial residual = 0.0511791014, Final residual = 2.3111595e-05, No Iterations 4
GAMG:  Solving for ILambda_50_0, Initial residual = 0.0489236489, Final residual = 9.54875484e-05, No Iterations 3
GAMG:  Solving for ILambda_51_0, Initial residual = 0.0433893694, Final residual = 8.65179169e-05, No Iterations 3
GAMG:  Solving for ILambda_52_0, Initial residual = 0.0374853162, Final residual = 6.08759686e-05, No Iterations 3
GAMG:  Solving for ILambda_53_0, Initial residual = 0.0327792256, Final residual = 4.86987739e-05, No Iterations 3
GAMG:  Solving for ILambda_54_0, Initial residual = 0.0340068257, Final residual = 4.95009575e-05, No Iterations 3
GAMG:  Solving for ILambda_55_0, Initial residual = 0.0435687686, Final residual = 3.82534841e-05, No Iterations 3
GAMG:  Solving for ILambda_56_0, Initial residual = 0.0523792009, Final residual = 4.04185655e-05, No Iterations 3
GAMG:  Solving for ILambda_57_0, Initial residual = 0.0591221797, Final residual = 5.22493344e-05, No Iterations 3
GAMG:  Solving for ILambda_58_0, Initial residual = 0.0613339872, Final residual = 7.53145738e-05, No Iterations 3
GAMG:  Solving for ILambda_59_0, Initial residual = 0.0524730156, Final residual = 1.44576409e-05, No Iterations 4
GAMG:  Solving for ILambda_60_0, Initial residual = 0.0525195882, Final residual = 1.69197244e-05, No Iterations 4
GAMG:  Solving for ILambda_61_0, Initial residual = 0.0618187116, Final residual = 9.42628375e-05, No Iterations 3
GAMG:  Solving for ILambda_62_0, Initial residual = 0.0598796869, Final residual = 7.2116663e-05, No Iterations 3
GAMG:  Solving for ILambda_63_0, Initial residual = 0.0534600246, Final residual = 5.31932414e-05, No Iterations 3
GAMG:  Solving for ILambda_64_0, Initial residual = 0.0441874571, Final residual = 4.6623464e-05, No Iterations 3
GAMG:  Solving for ILambda_65_0, Initial residual = 0.034379392, Final residual = 5.535373e-05, No Iterations 3
GAMG:  Solving for ILambda_66_0, Initial residual = 0.0331716097, Final residual = 5.49509221e-05, No Iterations 3
GAMG:  Solving for ILambda_67_0, Initial residual = 0.0376957236, Final residual = 6.92701765e-05, No Iterations 3
GAMG:  Solving for ILambda_68_0, Initial residual = 0.0431031276, Final residual = 1.80518693e-05, No Iterations 4
GAMG:  Solving for ILambda_69_0, Initial residual = 0.048460676, Final residual = 1.99349105e-05, No Iterations 4
GAMG:  Solving for ILambda_70_0, Initial residual = 0.0502147949, Final residual = 2.37460468e-05, No Iterations 4
GAMG:  Solving for ILambda_71_0, Initial residual = 0.0504173492, Final residual = 4.17505193e-05, No Iterations 4
GAMG:  Solving for ILambda_72_0, Initial residual = 0.0487467521, Final residual = 2.16781598e-05, No Iterations 4
GAMG:  Solving for ILambda_73_0, Initial residual = 0.0525509575, Final residual = 7.9075968e-05, No Iterations 3
GAMG:  Solving for ILambda_74_0, Initial residual = 0.0509812604, Final residual = 7.84733303e-05, No Iterations 3
GAMG:  Solving for ILambda_75_0, Initial residual = 0.0429536697, Final residual = 7.1502456e-05, No Iterations 3
GAMG:  Solving for ILambda_76_0, Initial residual = 0.0339839055, Final residual = 5.08637374e-05, No Iterations 3
GAMG:  Solving for ILambda_77_0, Initial residual = 0.0258914452, Final residual = 3.36362681e-05, No Iterations 3
GAMG:  Solving for ILambda_78_0, Initial residual = 0.0277712967, Final residual = 3.0556044e-05, No Iterations 3
GAMG:  Solving for ILambda_79_0, Initial residual = 0.0396853864, Final residual = 2.92691334e-05, No Iterations 3
GAMG:  Solving for ILambda_80_0, Initial residual = 0.0501407558, Final residual = 3.72951544e-05, No Iterations 3
GAMG:  Solving for ILambda_81_0, Initial residual = 0.0589196312, Final residual = 4.9899154e-05, No Iterations 3
GAMG:  Solving for ILambda_82_0, Initial residual = 0.0618981385, Final residual = 6.72256525e-05, No Iterations 3
GAMG:  Solving for ILambda_83_0, Initial residual = 0.0504472651, Final residual = 8.1071925e-05, No Iterations 3
GAMG:  Solving for ILambda_84_0, Initial residual = 0.0503096605, Final residual = 9.9617684e-05, No Iterations 3
GAMG:  Solving for ILambda_85_0, Initial residual = 0.0627393333, Final residual = 7.44523032e-05, No Iterations 3
GAMG:  Solving for ILambda_86_0, Initial residual = 0.0600379314, Final residual = 5.82298471e-05, No Iterations 3
GAMG:  Solving for ILambda_87_0, Initial residual = 0.0513400439, Final residual = 4.60778056e-05, No Iterations 3
GAMG:  Solving for ILambda_88_0, Initial residual = 0.0398990507, Final residual = 3.91693164e-05, No Iterations 3
GAMG:  Solving for ILambda_89_0, Initial residual = 0.0279534056, Final residual = 4.02505794e-05, No Iterations 3
GAMG:  Solving for ILambda_90_0, Initial residual = 0.0262057847, Final residual = 4.27292123e-05, No Iterations 3
GAMG:  Solving for ILambda_91_0, Initial residual = 0.034100097, Final residual = 6.20569878e-05, No Iterations 3
GAMG:  Solving for ILambda_92_0, Initial residual = 0.042661406, Final residual = 9.36416726e-05, No Iterations 3
GAMG:  Solving for ILambda_93_0, Initial residual = 0.0504261924, Final residual = 9.67881773e-05, No Iterations 3
GAMG:  Solving for ILambda_94_0, Initial residual = 0.0522083633, Final residual = 1.52261362e-05, No Iterations 4
GAMG:  Solving for ILambda_95_0, Initial residual = 0.0492041336, Final residual = 2.49221746e-05, No Iterations 4
GAMG:  Solving for ILambda_96_0, Initial residual = 0.0450122171, Final residual = 6.9891738e-05, No Iterations 3
GAMG:  Solving for ILambda_97_0, Initial residual = 0.0545651848, Final residual = 6.61956366e-05, No Iterations 3
GAMG:  Solving for ILambda_98_0, Initial residual = 0.0522753129, Final residual = 6.65793725e-05, No Iterations 3
GAMG:  Solving for ILambda_99_0, Initial residual = 0.042559334, Final residual = 6.37300958e-05, No Iterations 3
GAMG:  Solving for ILambda_100_0, Initial residual = 0.030862005, Final residual = 4.9102458e-05, No Iterations 3
GAMG:  Solving for ILambda_101_0, Initial residual = 0.0181651743, Final residual = 3.5976149e-05, No Iterations 3
GAMG:  Solving for ILambda_102_0, Initial residual = 0.0192654125, Final residual = 3.66928745e-05, No Iterations 3
GAMG:  Solving for ILambda_103_0, Initial residual = 0.0338467682, Final residual = 4.5398878e-05, No Iterations 3
GAMG:  Solving for ILambda_104_0, Initial residual = 0.0460529218, Final residual = 5.5627168e-05, No Iterations 3
GAMG:  Solving for ILambda_105_0, Initial residual = 0.0557416293, Final residual = 7.00724939e-05, No Iterations 3
GAMG:  Solving for ILambda_106_0, Initial residual = 0.0588543786, Final residual = 8.11633497e-05, No Iterations 3
GAMG:  Solving for ILambda_107_0, Initial residual = 0.0436513725, Final residual = 6.35813956e-05, No Iterations 3
GAMG:  Solving for ILambda_108_0, Initial residual = 0.0428707408, Final residual = 5.13688399e-05, No Iterations 3
GAMG:  Solving for ILambda_109_0, Initial residual = 0.0595968775, Final residual = 6.29165088e-05, No Iterations 3
GAMG:  Solving for ILambda_110_0, Initial residual = 0.0565604512, Final residual = 6.09705169e-05, No Iterations 3
GAMG:  Solving for ILambda_111_0, Initial residual = 0.0466881135, Final residual = 6.55930083e-05, No Iterations 3
GAMG:  Solving for ILambda_112_0, Initial residual = 0.0340437697, Final residual = 4.9759034e-05, No Iterations 3
GAMG:  Solving for ILambda_113_0, Initial residual = 0.0191917793, Final residual = 4.4129583e-05, No Iterations 3
GAMG:  Solving for ILambda_114_0, Initial residual = 0.0181929508, Final residual = 5.07443899e-05, No Iterations 3
GAMG:  Solving for ILambda_115_0, Initial residual = 0.0309943422, Final residual = 6.76827957e-05, No Iterations 3
GAMG:  Solving for ILambda_116_0, Initial residual = 0.0427295484, Final residual = 8.84924007e-05, No Iterations 3
GAMG:  Solving for ILambda_117_0, Initial residual = 0.0519214402, Final residual = 1.861453e-05, No Iterations 4
GAMG:  Solving for ILambda_118_0, Initial residual = 0.0551058075, Final residual = 1.74722999e-05, No Iterations 4
GAMG:  Solving for ILambda_119_0, Initial residual = 0.0458548696, Final residual = 9.03363784e-05, No Iterations 3
GAMG:  Solving for ILambda_120_0, Initial residual = 0.0415396434, Final residual = 6.64548358e-05, No Iterations 3
GAMG:  Solving for ILambda_121_0, Initial residual = 0.054245951, Final residual = 7.86116013e-05, No Iterations 3
GAMG:  Solving for ILambda_122_0, Initial residual = 0.0516611106, Final residual = 5.80751414e-05, No Iterations 3
GAMG:  Solving for ILambda_123_0, Initial residual = 0.0428404477, Final residual = 4.73943262e-05, No Iterations 3
GAMG:  Solving for ILambda_124_0, Initial residual = 0.0303657351, Final residual = 4.26070925e-05, No Iterations 3
GAMG:  Solving for ILambda_125_0, Initial residual = 0.0172937205, Final residual = 3.34234379e-05, No Iterations 3
GAMG:  Solving for ILambda_126_0, Initial residual = 0.0162516724, Final residual = 3.68367803e-05, No Iterations 3
GAMG:  Solving for ILambda_127_0, Initial residual = 0.0276727425, Final residual = 5.33571908e-05, No Iterations 3
GAMG:  Solving for ILambda_128_0, Initial residual = 0.0380476527, Final residual = 7.33331703e-05, No Iterations 3
GAMG:  Solving for ILambda_129_0, Initial residual = 0.0473017648, Final residual = 8.74146843e-05, No Iterations 3
GAMG:  Solving for ILambda_130_0, Initial residual = 0.0503668453, Final residual = 1.78656517e-05, No Iterations 4
GAMG:  Solving for ILambda_131_0, Initial residual = 0.0384083185, Final residual = 8.47830229e-05, No Iterations 3
GAMG:  Solving for ILambda_132_0, Initial residual = 0.0376961763, Final residual = 7.05264475e-05, No Iterations 3
GAMG:  Solving for ILambda_133_0, Initial residual = 0.0507686643, Final residual = 6.81651519e-05, No Iterations 3
GAMG:  Solving for ILambda_134_0, Initial residual = 0.0476920404, Final residual = 7.46137796e-05, No Iterations 3
GAMG:  Solving for ILambda_135_0, Initial residual = 0.0384938124, Final residual = 7.75673173e-05, No Iterations 3
GAMG:  Solving for ILambda_136_0, Initial residual = 0.0278193794, Final residual = 5.84940133e-05, No Iterations 3
GAMG:  Solving for ILambda_137_0, Initial residual = 0.0164457592, Final residual = 4.28602676e-05, No Iterations 3
GAMG:  Solving for ILambda_138_0, Initial residual = 0.017485525, Final residual = 3.82476373e-05, No Iterations 3
GAMG:  Solving for ILambda_139_0, Initial residual = 0.0306608704, Final residual = 4.98617992e-05, No Iterations 3
GAMG:  Solving for ILambda_140_0, Initial residual = 0.0430701748, Final residual = 6.19413819e-05, No Iterations 3
GAMG:  Solving for ILambda_141_0, Initial residual = 0.0516185035, Final residual = 9.58232852e-05, No Iterations 3
GAMG:  Solving for ILambda_142_0, Initial residual = 0.0553186181, Final residual = 1.59517621e-05, No Iterations 4
GAMG:  Solving for ILambda_143_0, Initial residual = 0.0415020256, Final residual = 7.22860136e-05, No Iterations 3
GAMG:  Solving for ILambda_144_0, Initial residual = 0.0407021576, Final residual = 7.209017e-05, No Iterations 3
GAMG:  Solving for ILambda_145_0, Initial residual = 0.0510578785, Final residual = 6.478877e-05, No Iterations 3
GAMG:  Solving for ILambda_146_0, Initial residual = 0.0491471488, Final residual = 5.60601354e-05, No Iterations 3
GAMG:  Solving for ILambda_147_0, Initial residual = 0.0422835333, Final residual = 3.64741131e-05, No Iterations 3
GAMG:  Solving for ILambda_148_0, Initial residual = 0.0321354446, Final residual = 3.09069787e-05, No Iterations 3
GAMG:  Solving for ILambda_149_0, Initial residual = 0.0222477927, Final residual = 2.83737844e-05, No Iterations 3
GAMG:  Solving for ILambda_150_0, Initial residual = 0.0210746151, Final residual = 3.28035401e-05, No Iterations 3
GAMG:  Solving for ILambda_151_0, Initial residual = 0.0275205505, Final residual = 4.58555613e-05, No Iterations 3
GAMG:  Solving for ILambda_152_0, Initial residual = 0.0331825039, Final residual = 6.19738901e-05, No Iterations 3
[...]
Radiation solver iter: 24
GAMG:  Solving for ILambda_54_0, Initial residual = 0.226115927, Final residual = 7.77470249e-05, No Iterations 5
GAMG:  Solving for ILambda_71_0, Initial residual = 0.106080325, Final residual = 0.000547611273, No Iterations 5
Radiation solver iter: 25
GAMG:  Solving for ILambda_54_0, Initial residual = 0.222834754, Final residual = 7.67370451e-05, No Iterations 5
GAMG:  Solving for ILambda_71_0, Initial residual = 0.157883798, Final residual = 0.000816312406, No Iterations 5
Radiation solver iter: 26
GAMG:  Solving for ILambda_54_0, Initial residual = 0.221174284, Final residual = 7.62603611e-05, No Iterations 5
GAMG:  Solving for ILambda_71_0, Initial residual = 0.138561021, Final residual = 0.000717235835, No Iterations 5
Radiation solver iter: 27
GAMG:  Solving for ILambda_54_0, Initial residual = 0.220320774, Final residual = 7.60454368e-05, No Iterations 5
GAMG:  Solving for ILambda_71_0, Initial residual = 0.128752048, Final residual = 0.000666980549, No Iterations 5
Radiation solver iter: 28
GAMG:  Solving for ILambda_54_0, Initial residual = 0.219915811, Final residual = 7.59698016e-05, No Iterations 5
GAMG:  Solving for ILambda_71_0, Initial residual = 0.12334363, Final residual = 0.000639351406, No Iterations 5
Radiation solver iter: 29
GAMG:  Solving for ILambda_54_0, Initial residual = 0.21971459, Final residual = 7.59544904e-05, No Iterations 5
GAMG:  Solving for ILambda_71_0, Initial residual = 0.120194931, Final residual = 0.000623302643, No Iterations 5
Radiation solver iter: 30
GAMG:  Solving for ILambda_54_0, Initial residual = 0.219646978, Final residual = 7.59751535e-05, No Iterations 5
GAMG:  Solving for ILambda_71_0, Initial residual = 0.118327494, Final residual = 0.000613847336, No Iterations 5
Radiation solver iter: 31
GAMG:  Solving for ILambda_54_0, Initial residual = 0.21961718, Final residual = 7.60021415e-05, No Iterations 5
GAMG:  Solving for ILambda_71_0, Initial residual = 0.117187378, Final residual = 0.000608099, No Iterations 5
Radiation solver iter: 32
GAMG:  Solving for ILambda_54_0, Initial residual = 0.219633774, Final residual = 7.60378433e-05, No Iterations 5
GAMG:  Solving for ILambda_71_0, Initial residual = 0.116497076, Final residual = 0.000604670548, No Iterations 5
Radiation solver iter: 33
GAMG:  Solving for ILambda_54_0, Initial residual = 0.219642598, Final residual = 7.60665308e-05, No Iterations 5
GAMG:  Solving for ILambda_71_0, Initial residual = 0.116062857, Final residual = 0.000602533639, No Iterations 5
Radiation solver iter: 34
GAMG:  Solving for ILambda_54_0, Initial residual = 0.219674521, Final residual = 7.60980389e-05, No Iterations 5
GAMG:  Solving for ILambda_71_0, Initial residual = 0.11580058, Final residual = 0.000601274045, No Iterations 5
Radiation solver iter: 35
GAMG:  Solving for ILambda_54_0, Initial residual = 0.219686972, Final residual = 7.61201096e-05, No Iterations 5
GAMG:  Solving for ILambda_71_0, Initial residual = 0.115631333, Final residual = 0.000600470117, No Iterations 5
Radiation solver iter: 36
GAMG:  Solving for ILambda_54_0, Initial residual = 0.219717116, Final residual = 7.61444478e-05, No Iterations 5
GAMG:  Solving for ILambda_71_0, Initial residual = 0.115530837, Final residual = 0.000600018376, No Iterations 5
Radiation solver iter: 37
GAMG:  Solving for ILambda_54_0, Initial residual = 0.219725414, Final residual = 7.61596409e-05, No Iterations 5
GAMG:  Solving for ILambda_71_0, Initial residual = 0.115462204, Final residual = 0.000599715009, No Iterations 5
Radiation solver iter: 38
GAMG:  Solving for ILambda_54_0, Initial residual = 0.219750677, Final residual = 7.61777925e-05, No Iterations 5
GAMG:  Solving for ILambda_71_0, Initial residual = 0.115422896, Final residual = 0.00059956219, No Iterations 5
Radiation solver iter: 39
GAMG:  Solving for ILambda_54_0, Initial residual = 0.219754142, Final residual = 7.61875866e-05, No Iterations 5
GAMG:  Solving for ILambda_71_0, Initial residual = 0.115393217, Final residual = 0.000599444871, No Iterations 5
Radiation solver iter: 40
GAMG:  Solving for ILambda_54_0, Initial residual = 0.219774987, Final residual = 7.62011245e-05, No Iterations 5
GAMG:  Solving for ILambda_71_0, Initial residual = 0.115377747, Final residual = 0.000599401028, No Iterations 5
Radiation solver iter: 41
GAMG:  Solving for ILambda_54_0, Initial residual = 0.219774549, Final residual = 7.62070098e-05, No Iterations 5
GAMG:  Solving for ILambda_71_0, Initial residual = 0.11536415, Final residual = 0.000599355617, No Iterations 5
Radiation solver iter: 42
GAMG:  Solving for ILambda_54_0, Initial residual = 0.219792043, Final residual = 7.62172691e-05, No Iterations 5
GAMG:  Solving for ILambda_71_0, Initial residual = 0.115358322, Final residual = 0.000599351684, No Iterations 5
Radiation solver iter: 43
GAMG:  Solving for ILambda_54_0, Initial residual = 0.219788757, Final residual = 7.62204118e-05, No Iterations 5
GAMG:  Solving for ILambda_71_0, Initial residual = 0.115351344, Final residual = 0.000599333746, No Iterations 5
Radiation solver iter: 44
GAMG:  Solving for ILambda_54_0, Initial residual = 0.219803857, Final residual = 7.62283878e-05, No Iterations 5
GAMG:  Solving for ILambda_71_0, Initial residual = 0.115349308, Final residual = 0.0005993427, No Iterations 5
Radiation solver iter: 45
GAMG:  Solving for ILambda_54_0, Initial residual = 0.219798563, Final residual = 7.62296297e-05, No Iterations 5
GAMG:  Solving for ILambda_71_0, Initial residual = 0.115345172, Final residual = 0.000599334665, No Iterations 5
Radiation solver iter: 46
GAMG:  Solving for ILambda_54_0, Initial residual = 0.219811987, Final residual = 7.62360269e-05, No Iterations 5
GAMG:  Solving for ILambda_71_0, Initial residual = 0.115344572, Final residual = 0.000599346123, No Iterations 5
Radiation solver iter: 47
GAMG:  Solving for ILambda_54_0, Initial residual = 0.219805299, Final residual = 7.62359586e-05, No Iterations 5
GAMG:  Solving for ILambda_71_0, Initial residual = 0.115341762, Final residual = 0.000599341635, No Iterations 5
Radiation solver iter: 48
GAMG:  Solving for ILambda_54_0, Initial residual = 0.219817566, Final residual = 7.62412697e-05, No Iterations 5
GAMG:  Solving for ILambda_71_0, Initial residual = 0.115341665, Final residual = 0.000599352354, No Iterations 5
Radiation solver iter: 49
GAMG:  Solving for ILambda_54_0, Initial residual = 0.219809917, Final residual = 7.62403002e-05, No Iterations 5
GAMG:  Solving for ILambda_71_0, Initial residual = 0.115339569, Final residual = 0.000599348999, No Iterations 5
Radiation solver iter: 50
GAMG:  Solving for ILambda_54_0, Initial residual = 0.219821388, Final residual = 7.62448654e-05, No Iterations 5
GAMG:  Solving for ILambda_71_0, Initial residual = 0.115339664, Final residual = 0.000599357985, No Iterations 5
Radiation solver iter: 51
GAMG:  Solving for ILambda_54_0, Initial residual = 0.219813078, Final residual = 7.6243277e-05, No Iterations 5
GAMG:  Solving for ILambda_71_0, Initial residual = 0.115337985, Final residual = 0.000599355076, No Iterations 5
Radiation solver iter: 52
GAMG:  Solving for ILambda_54_0, Initial residual = 0.219824003, Final residual = 7.62473302e-05, No Iterations 5
GAMG:  Solving for ILambda_71_0, Initial residual = 0.115338099, Final residual = 0.000599362431, No Iterations 5
Radiation solver iter: 53
GAMG:  Solving for ILambda_54_0, Initial residual = 0.219815237, Final residual = 7.62453162e-05, No Iterations 5
GAMG:  Solving for ILambda_71_0, Initial residual = 0.115336719, Final residual = 0.000599359679, No Iterations 5
Radiation solver iter: 54
GAMG:  Solving for ILambda_54_0, Initial residual = 0.219825787, Final residual = 7.62490177e-05, No Iterations 5
GAMG:  Solving for ILambda_71_0, Initial residual = 0.11533685, Final residual = 0.000599365586, No Iterations 5
Radiation solver iter: 55
GAMG:  Solving for ILambda_54_0, Initial residual = 0.219816708, Final residual = 7.62467122e-05, No Iterations 5
GAMG:  Solving for ILambda_71_0, Initial residual = 0.115335693, Final residual = 0.0005993631, No Iterations 5
Radiation solver iter: 56
GAMG:  Solving for ILambda_54_0, Initial residual = 0.219827, Final residual = 7.62501723e-05, No Iterations 5
GAMG:  Solving for ILambda_71_0, Initial residual = 0.11533578, Final residual = 0.000599367884, No Iterations 5
Radiation solver iter: 57
GAMG:  Solving for ILambda_54_0, Initial residual = 0.21981771, Final residual = 7.62476672e-05, No Iterations 5
GAMG:  Solving for ILambda_71_0, Initial residual = 0.115334807, Final residual = 0.000599365553, No Iterations 5
Radiation solver iter: 58
GAMG:  Solving for ILambda_54_0, Initial residual = 0.219827826, Final residual = 7.62509623e-05, No Iterations 5
GAMG:  Solving for ILambda_71_0, Initial residual = 0.1153349, Final residual = 0.000599369324, No Iterations 5
Radiation solver iter: 59
GAMG:  Solving for ILambda_54_0, Initial residual = 0.219818391, Final residual = 7.62483207e-05, No Iterations 5
GAMG:  Solving for ILambda_71_0, Initial residual = 0.115334078, Final residual = 0.000599367346, No Iterations 5
Radiation solver iter: 60
GAMG:  Solving for ILambda_54_0, Initial residual = 0.219828391, Final residual = 7.62515034e-05, No Iterations 5
GAMG:  Solving for ILambda_71_0, Initial residual = 0.115334124, Final residual = 0.000599370408, No Iterations 5
Radiation solver iter: 61
GAMG:  Solving for ILambda_54_0, Initial residual = 0.219818857, Final residual = 7.62487685e-05, No Iterations 5
GAMG:  Solving for ILambda_71_0, Initial residual = 0.115333432, Final residual = 0.000599368618, No Iterations 5
Radiation solver iter: 62
GAMG:  Solving for ILambda_54_0, Initial residual = 0.219828776, Final residual = 7.62518741e-05, No Iterations 5
GAMG:  Solving for ILambda_71_0, Initial residual = 0.115333491, Final residual = 0.000599371018, No Iterations 5
Radiation solver iter: 63
GAMG:  Solving for ILambda_54_0, Initial residual = 0.219819176, Final residual = 7.62490755e-05, No Iterations 5
GAMG:  Solving for ILambda_71_0, Initial residual = 0.115332904, Final residual = 0.000599369564, No Iterations 5
Radiation solver iter: 64
GAMG:  Solving for ILambda_54_0, Initial residual = 0.21982904, Final residual = 7.62521284e-05, No Iterations 5
GAMG:  Solving for ILambda_71_0, Initial residual = 0.115332928, Final residual = 0.000599371535, No Iterations 5
Radiation solver iter: 65
GAMG:  Solving for ILambda_54_0, Initial residual = 0.219819395, Final residual = 7.62492862e-05, No Iterations 5
GAMG:  Solving for ILambda_71_0, Initial residual = 0.115332436, Final residual = 0.000599370221, No Iterations 5
Radiation solver iter: 66
GAMG:  Solving for ILambda_54_0, Initial residual = 0.219829221, Final residual = 7.62523029e-05, No Iterations 5
GAMG:  Solving for ILambda_71_0, Initial residual = 0.115332476, Final residual = 0.000599371766, No Iterations 5
Radiation solver iter: 67
GAMG:  Solving for ILambda_54_0, Initial residual = 0.219819545, Final residual = 7.62494307e-05, No Iterations 5
GAMG:  Solving for ILambda_71_0, Initial residual = 0.115332058, Final residual = 0.000599370738, No Iterations 5
Radiation solver iter: 68
GAMG:  Solving for ILambda_54_0, Initial residual = 0.219829346, Final residual = 7.62524227e-05, No Iterations 5
GAMG:  Solving for ILambda_71_0, Initial residual = 0.115332067, Final residual = 0.000599372025, No Iterations 5
Radiation solver iter: 69
GAMG:  Solving for ILambda_54_0, Initial residual = 0.219819648, Final residual = 7.62495299e-05, No Iterations 5
GAMG:  Solving for ILambda_71_0, Initial residual = 0.115331719, Final residual = 0.000599371103, No Iterations 5
Radiation solver iter: 70
GAMG:  Solving for ILambda_54_0, Initial residual = 0.219829431, Final residual = 7.62525049e-05, No Iterations 5
GAMG:  Solving for ILambda_71_0, Initial residual = 0.115331747, Final residual = 0.000599372087, No Iterations 5
Radiation solver iter: 71
GAMG:  Solving for ILambda_54_0, Initial residual = 0.219819719, Final residual = 7.6249598e-05, No Iterations 5
GAMG:  Solving for ILambda_71_0, Initial residual = 0.11533145, Final residual = 0.000599371409, No Iterations 5
Radiation solver iter: 72
GAMG:  Solving for ILambda_54_0, Initial residual = 0.21982949, Final residual = 7.62525613e-05, No Iterations 5
GAMG:  Solving for ILambda_71_0, Initial residual = 0.115331449, Final residual = 0.000599372236, No Iterations 5
Radiation solver iter: 73
GAMG:  Solving for ILambda_54_0, Initial residual = 0.219819768, Final residual = 7.62496447e-05, No Iterations 5
GAMG:  Solving for ILambda_71_0, Initial residual = 0.115331204, Final residual = 0.000599371617, No Iterations 5
Radiation solver iter: 74
GAMG:  Solving for ILambda_54_0, Initial residual = 0.21982953, Final residual = 7.62526e-05, No Iterations 5
GAMG:  Solving for ILambda_71_0, Initial residual = 0.115331224, Final residual = 0.000599372235, No Iterations 5
Radiation solver iter: 75
GAMG:  Solving for ILambda_54_0, Initial residual = 0.219819801, Final residual = 7.62496768e-05, No Iterations 5
GAMG:  Solving for ILambda_71_0, Initial residual = 0.115331016, Final residual = 0.000599371813, No Iterations 5
Radiation solver iter: 76
GAMG:  Solving for ILambda_54_0, Initial residual = 0.219829557, Final residual = 7.62526266e-05, No Iterations 5
GAMG:  Solving for ILambda_71_0, Initial residual = 0.115331009, Final residual = 0.00059937235, No Iterations 5
Radiation solver iter: 77
GAMG:  Solving for ILambda_54_0, Initial residual = 0.219819824, Final residual = 7.62496988e-05, No Iterations 5
GAMG:  Solving for ILambda_71_0, Initial residual = 0.115330837, Final residual = 0.000599371945, No Iterations 5
Radiation solver iter: 78
GAMG:  Solving for ILambda_54_0, Initial residual = 0.219829576, Final residual = 7.62526448e-05, No Iterations 5
GAMG:  Solving for ILambda_71_0, Initial residual = 0.115330853, Final residual = 0.000599372325, No Iterations 5
Radiation solver iter: 79
GAMG:  Solving for ILambda_54_0, Initial residual = 0.21981984, Final residual = 7.62497139e-05, No Iterations 5
GAMG:  Solving for ILambda_71_0, Initial residual = 0.115330706, Final residual = 0.000599372078, No Iterations 5
Radiation solver iter: 80
GAMG:  Solving for ILambda_54_0, Initial residual = 0.219829589, Final residual = 7.62526573e-05, No Iterations 5
GAMG:  Solving for ILambda_71_0, Initial residual = 0.115330696, Final residual = 0.000599372421, No Iterations 5
Radiation solver iter: 81
GAMG:  Solving for ILambda_54_0, Initial residual = 0.21981985, Final residual = 7.62497243e-05, No Iterations 5
GAMG:  Solving for ILambda_71_0, Initial residual = 0.115330577, Final residual = 0.00059937216, No Iterations 5
Radiation solver iter: 82
GAMG:  Solving for ILambda_54_0, Initial residual = 0.219829598, Final residual = 7.62526659e-05, No Iterations 5
GAMG:  Solving for ILambda_71_0, Initial residual = 0.115330589, Final residual = 0.000599372385, No Iterations 5
Radiation solver iter: 83
GAMG:  Solving for ILambda_54_0, Initial residual = 0.219819858, Final residual = 7.62497314e-05, No Iterations 5
GAMG:  Solving for ILambda_71_0, Initial residual = 0.115330486, Final residual = 0.000599372254, No Iterations 5
Radiation solver iter: 84
GAMG:  Solving for ILambda_54_0, Initial residual = 0.219829604, Final residual = 7.62526718e-05, No Iterations 5
GAMG:  Solving for ILambda_71_0, Initial residual = 0.115330473, Final residual = 0.000599372475, No Iterations 5
Radiation solver iter: 85
GAMG:  Solving for ILambda_54_0, Initial residual = 0.219819863, Final residual = 7.62497362e-05, No Iterations 5
GAMG:  Solving for ILambda_71_0, Initial residual = 0.115330391, Final residual = 0.000599372306, No Iterations 5
Radiation solver iter: 86
GAMG:  Solving for ILambda_54_0, Initial residual = 0.219829609, Final residual = 7.62526758e-05, No Iterations 5
GAMG:  Solving for ILambda_71_0, Initial residual = 0.115330401, Final residual = 0.000599372433, No Iterations 5
Radiation solver iter: 87
GAMG:  Solving for ILambda_54_0, Initial residual = 0.219819866, Final residual = 7.62497396e-05, No Iterations 5
GAMG:  Solving for ILambda_71_0, Initial residual = 0.11533033, Final residual = 0.000599372375, No Iterations 5
Radiation solver iter: 88
GAMG:  Solving for ILambda_54_0, Initial residual = 0.219829611, Final residual = 7.62526786e-05, No Iterations 5
GAMG:  Solving for ILambda_71_0, Initial residual = 0.115330315, Final residual = 0.000599372516, No Iterations 5
Radiation solver iter: 89
GAMG:  Solving for ILambda_54_0, Initial residual = 0.219819869, Final residual = 7.62497419e-05, No Iterations 5
GAMG:  Solving for ILambda_71_0, Initial residual = 0.115330259, Final residual = 0.000599372406, No Iterations 5
Radiation solver iter: 90
GAMG:  Solving for ILambda_54_0, Initial residual = 0.219829613, Final residual = 7.62526805e-05, No Iterations 5
GAMG:  Solving for ILambda_71_0, Initial residual = 0.115330268, Final residual = 0.000599372467, No Iterations 5
Radiation solver iter: 91
GAMG:  Solving for ILambda_54_0, Initial residual = 0.21981987, Final residual = 7.62497435e-05, No Iterations 5
GAMG:  Solving for ILambda_71_0, Initial residual = 0.11533022, Final residual = 0.000599372463, No Iterations 5
Radiation solver iter: 92
GAMG:  Solving for ILambda_54_0, Initial residual = 0.219829615, Final residual = 7.62526817e-05, No Iterations 5
GAMG:  Solving for ILambda_71_0, Initial residual = 0.115330204, Final residual = 0.000599372549, No Iterations 5
Radiation solver iter: 93
GAMG:  Solving for ILambda_54_0, Initial residual = 0.219819871, Final residual = 7.62497444e-05, No Iterations 5
GAMG:  Solving for ILambda_71_0, Initial residual = 0.115330167, Final residual = 0.000599372482, No Iterations 5
Radiation solver iter: 94
GAMG:  Solving for ILambda_54_0, Initial residual = 0.219829615, Final residual = 7.62526824e-05, No Iterations 5
GAMG:  Solving for ILambda_71_0, Initial residual = 0.115330174, Final residual = 0.000599372496, No Iterations 5
Radiation solver iter: 95
GAMG:  Solving for ILambda_54_0, Initial residual = 0.219819871, Final residual = 7.62497449e-05, No Iterations 5
GAMG:  Solving for ILambda_71_0, Initial residual = 0.115330141, Final residual = 0.000599372525, No Iterations 5
Radiation solver iter: 96
GAMG:  Solving for ILambda_54_0, Initial residual = 0.219829615, Final residual = 7.62526828e-05, No Iterations 5
GAMG:  Solving for ILambda_71_0, Initial residual = 0.115330124, Final residual = 0.000599372571, No Iterations 5
Radiation solver iter: 97
GAMG:  Solving for ILambda_54_0, Initial residual = 0.219819871, Final residual = 7.62497452e-05, No Iterations 5
GAMG:  Solving for ILambda_71_0, Initial residual = 0.115330101, Final residual = 0.000599372535, No Iterations 5
Radiation solver iter: 98
GAMG:  Solving for ILambda_54_0, Initial residual = 0.219829615, Final residual = 7.62526831e-05, No Iterations 5
GAMG:  Solving for ILambda_71_0, Initial residual = 0.115330107, Final residual = 0.000599372516, No Iterations 5
Radiation solver iter: 99
GAMG:  Solving for ILambda_54_0, Initial residual = 0.219819871, Final residual = 7.62497454e-05, No Iterations 5
GAMG:  Solving for ILambda_71_0, Initial residual = 0.115330086, Final residual = 0.000599372571, No Iterations 5
ExecutionTime = 1319 s  ClockTime = 1345 s

yPlusRAS yplusRAS output:
    patch room_SIDE2 y+ : min = 0.246154301, max = 16.0982056, average = 2.86273529
    patch room_FLOOR y+ : min = 0.113528672, max = 9.22933096, average = 2.57921529
    patch room_CEILING y+ : min = 0.410724887, max = 14.6146727, average = 2.8278138
    patch room_BACK y+ : min = 0.239154242, max = 28.6109998, average = 3.42071572
    patch room_SIDE1 y+ : min = 0.237368872, max = 17.2116764, average = 2.86032822
    patch manikin y+ : min = 0.023875235, max = 6.8202077, average = 0.665823923
    writing field yPlusRAS

End

Finalising parallel run
