/*---------------------------------------------------------------------------*\
| =========                 |                                                 |
| \\      /  F ield         | OpenFOAM: The Open Source CFD Toolbox           |
|  \\    /   O peration     | Version:  2.3.1                                 |
|   \\  /    A nd           | Web:      www.OpenFOAM.org                      |
|    \\/     M anipulation  |                                                 |
\*---------------------------------------------------------------------------*/
Build  : 2.3.1-bcfaaa7b8660
Exec   : radiationFoam -parallel
Date   : Apr 18 2017
Time   : 20:23:34
Host   : "ubuntu"
PID    : 3116
Case   : /home/cong/Desktop/AIVC/Case1
nProcs : 4
Slaves : 
3
(
"ubuntu.3117"
"ubuntu.3118"
"ubuntu.3119"
)

Pstream initialized with:
    floatTransfer      : 0
    nProcsSimpleSum    : 0
    commsType          : nonBlocking
    polling iterations : 0
sigFpe : Enabling floating point exception trapping (FOAM_SIGFPE).
fileModificationChecking : Monitoring run-time modified files using timeStampMaster
allowSystemOperations : Allowing user-supplied system call operations

// * * * * * * * * * * * * * * * * * * * * * * * * * * * * * * * * * * * * * //
Create time

Create mesh for time = 4000


Reading g
Reading thermophysical properties

Selecting thermodynamics package 
{
    type            heRhoThermo;
    mixture         pureMixture;
    transport       const;
    thermo          hConst;
    equationOfState perfectGas;
    specie          specie;
    energy          sensibleEnthalpy;
}

Reading field U

Reading/calculating face flux field phi

Creating turbulence model

Selecting RAS turbulence model kEpsilon
kEpsilonCoeffs
{
    Cmu             0.09;
    C1              1.44;
    C2              1.92;
    C3              -0.33;
    sigmak          1;
    sigmaEps        1.3;
    Prt             1;
}

Calculating field g.h

Reading field p_rgh

No finite volume options present

Selecting radiationModel fvDOM
Selecting absorptionEmissionModel none
Selecting scatterModel none
Selecting sootModel none
fvDOM : Allocated 80 rays with average orientation:
	I0 : omega : 	0.0749988509
	I1 : omega : 	0.0749988509
	I2 : omega : 	0.0749988509
	I3 : omega : 	0.0749988509
	I4 : omega : 	0.0749988509
	I5 : omega : 	0.0749988509
	I6 : omega : 	0.0749988509
	I7 : omega : 	0.0749988509
	I8 : omega : 	0.0749988509
	I9 : omega : 	0.0749988509
	I10 : omega : 	0.0749988509
	I11 : omega : 	0.0749988509
	I12 : omega : 	0.0749988509
	I13 : omega : 	0.0749988509
	I14 : omega : 	0.0749988509
	I15 : omega : 	0.0749988509
	I16 : omega : 	0.196349541
	I17 : omega : 	0.196349541
	I18 : omega : 	0.196349541
	I19 : omega : 	0.196349541
	I20 : omega : 	0.196349541
	I21 : omega : 	0.196349541
	I22 : omega : 	0.196349541
	I23 : omega : 	0.196349541
	I24 : omega : 	0.196349541
	I25 : omega : 	0.196349541
	I26 : omega : 	0.196349541
	I27 : omega : 	0.196349541
	I28 : omega : 	0.196349541
	I29 : omega : 	0.196349541
	I30 : omega : 	0.196349541
	I31 : omega : 	0.196349541
	I32 : omega : 	0.24270138
	I33 : omega : 	0.24270138
	I34 : omega : 	0.24270138
	I35 : omega : 	0.24270138
	I36 : omega : 	0.24270138
	I37 : omega : 	0.24270138
	I38 : omega : 	0.24270138
	I39 : omega : 	0.24270138
	I40 : omega : 	0.24270138
	I41 : omega : 	0.24270138
	I42 : omega : 	0.24270138
	I43 : omega : 	0.24270138
	I44 : omega : 	0.24270138
	I45 : omega : 	0.24270138
	I46 : omega : 	0.24270138
	I47 : omega : 	0.24270138
	I48 : omega : 	0.196349541
	I49 : omega : 	0.196349541
	I50 : omega : 	0.196349541
	I51 : omega : 	0.196349541
	I52 : omega : 	0.196349541
	I53 : omega : 	0.196349541
	I54 : omega : 	0.196349541
	I55 : omega : 	0.196349541
	I56 : omega : 	0.196349541
	I57 : omega : 	0.196349541
	I58 : omega : 	0.196349541
	I59 : omega : 	0.196349541
	I60 : omega : 	0.196349541
	I61 : omega : 	0.196349541
	I62 : omega : 	0.196349541
	I63 : omega : 	0.196349541
	I64 : omega : 	0.0749988509
	I65 : omega : 	0.0749988509
	I66 : omega : 	0.0749988509
	I67 : omega : 	0.0749988509
	I68 : omega : 	0.0749988509
	I69 : omega : 	0.0749988509
	I70 : omega : 	0.0749988509
	I71 : omega : 	0.0749988509
	I72 : omega : 	0.0749988509
	I73 : omega : 	0.0749988509
	I74 : omega : 	0.0749988509
	I75 : omega : 	0.0749988509
	I76 : omega : 	0.0749988509
	I77 : omega : 	0.0749988509
	I78 : omega : 	0.0749988509
	I79 : omega : 	0.0749988509


SIMPLE: convergence criteria
    field "(p_rgh|p)"	 tolerance 1e-07
    field U	 tolerance 1e-08
    field h	 tolerance 1e-08
    field "(k|epsilon|omega)"	 tolerance 1e-08


Starting time loop

Time = 4001

Radiation solver iter: 0
GAMG:  Solving for ILambda_0_0, Initial residual = 1, Final residual = 9.48359939e-05, No Iterations 4
GAMG:  Solving for ILambda_1_0, Initial residual = 1, Final residual = 5.15593828e-05, No Iterations 4
GAMG:  Solving for ILambda_2_0, Initial residual = 1, Final residual = 3.1936066e-05, No Iterations 4
GAMG:  Solving for ILambda_3_0, Initial residual = 1, Final residual = 3.05812444e-05, No Iterations 4
GAMG:  Solving for ILambda_4_0, Initial residual = 1, Final residual = 2.59808277e-05, No Iterations 4
GAMG:  Solving for ILambda_5_0, Initial residual = 1, Final residual = 1.30431916e-05, No Iterations 4
GAMG:  Solving for ILambda_6_0, Initial residual = 1, Final residual = 1.54074996e-05, No Iterations 4
GAMG:  Solving for ILambda_7_0, Initial residual = 1, Final residual = 5.63483892e-05, No Iterations 4
GAMG:  Solving for ILambda_8_0, Initial residual = 1, Final residual = 5.77552748e-05, No Iterations 4
GAMG:  Solving for ILambda_9_0, Initial residual = 1, Final residual = 1.75754993e-05, No Iterations 4
GAMG:  Solving for ILambda_10_0, Initial residual = 1, Final residual = 1.61985932e-05, No Iterations 4
GAMG:  Solving for ILambda_11_0, Initial residual = 1, Final residual = 3.21313042e-05, No Iterations 4
GAMG:  Solving for ILambda_12_0, Initial residual = 1, Final residual = 3.58605198e-05, No Iterations 4
GAMG:  Solving for ILambda_13_0, Initial residual = 1, Final residual = 3.56390712e-05, No Iterations 4
GAMG:  Solving for ILambda_14_0, Initial residual = 1, Final residual = 5.92852343e-05, No Iterations 4
GAMG:  Solving for ILambda_15_0, Initial residual = 1, Final residual = 9.80912957e-05, No Iterations 4
GAMG:  Solving for ILambda_16_0, Initial residual = 1, Final residual = 4.56559377e-05, No Iterations 4
GAMG:  Solving for ILambda_17_0, Initial residual = 1, Final residual = 2.16335481e-05, No Iterations 4
GAMG:  Solving for ILambda_18_0, Initial residual = 1, Final residual = 2.02623409e-05, No Iterations 4
GAMG:  Solving for ILambda_19_0, Initial residual = 1, Final residual = 1.54168235e-05, No Iterations 4
GAMG:  Solving for ILambda_20_0, Initial residual = 1, Final residual = 8.95841441e-05, No Iterations 3
GAMG:  Solving for ILambda_21_0, Initial residual = 1, Final residual = 7.01622567e-05, No Iterations 3
GAMG:  Solving for ILambda_22_0, Initial residual = 1, Final residual = 1.1944798e-05, No Iterations 4
GAMG:  Solving for ILambda_23_0, Initial residual = 1, Final residual = 2.04555892e-05, No Iterations 4
GAMG:  Solving for ILambda_24_0, Initial residual = 1, Final residual = 2.31285783e-05, No Iterations 4
GAMG:  Solving for ILambda_25_0, Initial residual = 1, Final residual = 1.25946641e-05, No Iterations 4
GAMG:  Solving for ILambda_26_0, Initial residual = 1, Final residual = 8.03868064e-05, No Iterations 3
GAMG:  Solving for ILambda_27_0, Initial residual = 1, Final residual = 1.40543238e-05, No Iterations 4
GAMG:  Solving for ILambda_28_0, Initial residual = 1, Final residual = 1.8789881e-05, No Iterations 4
GAMG:  Solving for ILambda_29_0, Initial residual = 1, Final residual = 2.69748137e-05, No Iterations 4
GAMG:  Solving for ILambda_30_0, Initial residual = 1, Final residual = 2.90248797e-05, No Iterations 4
GAMG:  Solving for ILambda_31_0, Initial residual = 1, Final residual = 4.91972858e-05, No Iterations 4
GAMG:  Solving for ILambda_32_0, Initial residual = 1, Final residual = 3.80486181e-05, No Iterations 5
GAMG:  Solving for ILambda_33_0, Initial residual = 1, Final residual = 4.00555662e-05, No Iterations 5
GAMG:  Solving for ILambda_34_0, Initial residual = 1, Final residual = 9.91986442e-05, No Iterations 4
GAMG:  Solving for ILambda_35_0, Initial residual = 1, Final residual = 6.9483713e-05, No Iterations 4
GAMG:  Solving for ILambda_36_0, Initial residual = 1, Final residual = 7.27279611e-05, No Iterations 4
GAMG:  Solving for ILambda_37_0, Initial residual = 1, Final residual = 3.64340941e-05, No Iterations 5
GAMG:  Solving for ILambda_38_0, Initial residual = 1, Final residual = 7.79514755e-05, No Iterations 5
GAMG:  Solving for ILambda_39_0, Initial residual = 1, Final residual = 4.39905044e-05, No Iterations 5
GAMG:  Solving for ILambda_40_0, Initial residual = 1, Final residual = 8.90418658e-05, No Iterations 4
GAMG:  Solving for ILambda_41_0, Initial residual = 1, Final residual = 3.55905595e-05, No Iterations 5
GAMG:  Solving for ILambda_42_0, Initial residual = 1, Final residual = 3.20205576e-05, No Iterations 5
GAMG:  Solving for ILambda_43_0, Initial residual = 1, Final residual = 8.67207197e-05, No Iterations 4
GAMG:  Solving for ILambda_44_0, Initial residual = 1, Final residual = 8.02158268e-05, No Iterations 4
GAMG:  Solving for ILambda_45_0, Initial residual = 1, Final residual = 4.71969503e-05, No Iterations 5
GAMG:  Solving for ILambda_46_0, Initial residual = 1, Final residual = 0.000119334832, No Iterations 5
GAMG:  Solving for ILambda_47_0, Initial residual = 1, Final residual = 6.83820212e-05, No Iterations 5
GAMG:  Solving for ILambda_48_0, Initial residual = 1, Final residual = 1.49609476e-05, No Iterations 4
GAMG:  Solving for ILambda_49_0, Initial residual = 1, Final residual = 1.2034636e-05, No Iterations 4
GAMG:  Solving for ILambda_50_0, Initial residual = 1, Final residual = 8.10385783e-05, No Iterations 3
GAMG:  Solving for ILambda_51_0, Initial residual = 1, Final residual = 9.44611774e-05, No Iterations 3
GAMG:  Solving for ILambda_52_0, Initial residual = 1, Final residual = 1.53291161e-05, No Iterations 4
GAMG:  Solving for ILambda_53_0, Initial residual = 1, Final residual = 2.0675639e-05, No Iterations 4
GAMG:  Solving for ILambda_54_0, Initial residual = 1, Final residual = 3.05371126e-05, No Iterations 4
GAMG:  Solving for ILambda_55_0, Initial residual = 1, Final residual = 4.61746132e-05, No Iterations 4
GAMG:  Solving for ILambda_56_0, Initial residual = 1, Final residual = 4.35117579e-05, No Iterations 4
GAMG:  Solving for ILambda_57_0, Initial residual = 1, Final residual = 2.67338042e-05, No Iterations 4
GAMG:  Solving for ILambda_58_0, Initial residual = 1, Final residual = 1.85962738e-05, No Iterations 4
GAMG:  Solving for ILambda_59_0, Initial residual = 1, Final residual = 1.55529529e-05, No Iterations 4
GAMG:  Solving for ILambda_60_0, Initial residual = 1, Final residual = 1.51241726e-05, No Iterations 4
GAMG:  Solving for ILambda_61_0, Initial residual = 1, Final residual = 8.59245679e-05, No Iterations 3
GAMG:  Solving for ILambda_62_0, Initial residual = 1, Final residual = 9.32245008e-05, No Iterations 3
GAMG:  Solving for ILambda_63_0, Initial residual = 1, Final residual = 1.33378992e-05, No Iterations 4
GAMG:  Solving for ILambda_64_0, Initial residual = 1, Final residual = 2.11822089e-05, No Iterations 4
GAMG:  Solving for ILambda_65_0, Initial residual = 1, Final residual = 9.70420558e-05, No Iterations 3
GAMG:  Solving for ILambda_66_0, Initial residual = 1, Final residual = 9.44154768e-05, No Iterations 3
GAMG:  Solving for ILambda_67_0, Initial residual = 1, Final residual = 3.63726612e-05, No Iterations 4
GAMG:  Solving for ILambda_68_0, Initial residual = 1, Final residual = 3.84229662e-05, No Iterations 4
GAMG:  Solving for ILambda_69_0, Initial residual = 1, Final residual = 2.30621573e-05, No Iterations 4
GAMG:  Solving for ILambda_70_0, Initial residual = 1, Final residual = 3.02757296e-05, No Iterations 4
GAMG:  Solving for ILambda_71_0, Initial residual = 1, Final residual = 7.0797492e-05, No Iterations 4
GAMG:  Solving for ILambda_72_0, Initial residual = 1, Final residual = 7.47977911e-05, No Iterations 4
GAMG:  Solving for ILambda_73_0, Initial residual = 1, Final residual = 3.07699258e-05, No Iterations 4
GAMG:  Solving for ILambda_74_0, Initial residual = 1, Final residual = 2.38636066e-05, No Iterations 4
GAMG:  Solving for ILambda_75_0, Initial residual = 1, Final residual = 4.02165704e-05, No Iterations 4
